/*--------------------------------*- C++ -*----------------------------------*\
  =========                 |
  \\      /  F ield         | OpenFOAM: The Open Source CFD Toolbox
   \\    /   O peration     | Website:  https://openfoam.org
    \\  /    A nd           | Version:  8
     \\/     M anipulation  |
\*---------------------------------------------------------------------------*/
FoamFile
{
    version     2.0;
    format      ascii;
    class       dictionary;
    object      blockMeshDict;
}
// * * * * * * * * * * * * * * * * * * * * * * * * * * * * * * * * * * * * * //

convertToMeters 1e-3;

vertices
(
	(0 0 0.0)
	(21.9790608748 -0.959626522037 0.0)
	(21.9790608748 0.959626522037 0.0)
	(0 0 0.833333333333)
	(24.0309917249 -1.04921575773 0.833333333333)
	(24.0309917249 1.04921575773 0.833333333333)
	(0 0 1.66666666667)
	(25.9419521537 -1.13265009192 1.66666666667)
	(25.9419521537 1.13265009192 1.66666666667)
	(0 0 2.5)
	(27.5805786414 -1.20419406945 2.5)
	(27.5805786414 1.20419406945 2.5)
	(0 0 3.33333333333)
	(28.834066776 -1.25892254333 3.33333333333)
	(28.834066776 1.25892254333 3.33333333333)
	(0 0 4.16666666667)
	(29.6158586878 -1.29305631535 4.16666666667)
	(29.6158586878 1.29305631535 4.16666666667)
	(0 0 5.0)
	(29.8715418253 -1.30421968222 5.0)
	(29.8715418253 1.30421968222 5.0)
	(0 0 5.83333333333)
	(29.5825570804 -1.29160233578 5.83333333333)
	(29.5825570804 1.29160233578 5.83333333333)
	(0 0 6.66666666667)
	(28.7674635612 -1.25601458417 6.66666666667)
	(28.7674635612 1.25601458417 6.66666666667)
	(0 0 7.5)
	(27.4806738193 -1.19983213071 7.5)
	(27.4806738193 1.19983213071 7.5)
	(0 0 8.33333333333)
	(25.8087457242 -1.1268341736 8.33333333333)
	(25.8087457242 1.1268341736 8.33333333333)
	(0 0 9.16666666667)
	(23.8644836879 -1.04194585984 9.16666666667)
	(23.8644836879 1.04194585984 9.16666666667)
	(0 0 10.0)
	(21.7792512305 -0.950902644564 10.0)
	(21.7792512305 0.950902644564 10.0)
	(0 0 10.8333333333)
	(19.694018773 -0.859859429288 10.8333333333)
	(19.694018773 0.859859429288 10.8333333333)
	(0 0 11.6666666667)
	(17.7497567368 -0.774971115524 11.6666666667)
	(17.7497567368 0.774971115524 11.6666666667)
	(0 0 12.5)
	(16.0778286417 -0.701973158418 12.5)
	(16.0778286417 0.701973158418 12.5)
	(0 0 13.3333333333)
	(14.7910388997 -0.645790704959 13.3333333333)
	(14.7910388997 0.645790704959 13.3333333333)
	(0 0 14.1666666667)
	(13.9759453805 -0.610202953353 14.1666666667)
	(13.9759453805 0.610202953353 14.1666666667)
	(0 0 15.0)
	(13.6869606357 -0.597585606905 15.0)
	(13.6869606357 0.597585606905 15.0)
	(0 0 15.8333333333)
	(13.9426437732 -0.608748973774 15.8333333333)
	(13.9426437732 0.608748973774 15.8333333333)
	(0 0 16.6666666667)
	(14.724435685 -0.642882745802 16.6666666667)
	(14.724435685 0.642882745802 16.6666666667)
	(0 0 17.5)
	(15.9779238195 -0.697611219682 17.5)
	(15.9779238195 0.697611219682 17.5)
	(0 0 18.3333333333)
	(17.6165503072 -0.769155197209 18.3333333333)
	(17.6165503072 0.769155197209 18.3333333333)
	(0 0 19.1666666667)
	(19.5275107361 -0.852589531394 19.1666666667)
	(19.5275107361 0.852589531394 19.1666666667)
	(0 0 20.0)
	(21.5794415862 -0.942178767091 20.0)
	(21.5794415862 0.942178767091 20.0)
	(0 0 20.8333333333)
	(23.6313724362 -1.03176800279 20.8333333333)
	(23.6313724362 1.03176800279 20.8333333333)
	(0 0 21.6666666667)
	(25.5423328651 -1.11520233697 21.6666666667)
	(25.5423328651 1.11520233697 21.6666666667)
	(0 0 22.5)
	(27.1809593528 -1.1867463145 22.5)
	(27.1809593528 1.1867463145 22.5)
	(0 0 23.3333333333)
	(28.4344474874 -1.24147478838 23.3333333333)
	(28.4344474874 1.24147478838 23.3333333333)
	(0 0 24.1666666667)
	(29.2162393992 -1.27560856041 24.1666666667)
	(29.2162393992 1.27560856041 24.1666666667)
	(0 0 25.0)
	(29.4719225367 -1.28677192728 25.0)
	(29.4719225367 1.28677192728 25.0)
	(0 0 25.8333333333)
	(29.1829377918 -1.27415458083 25.8333333333)
	(29.1829377918 1.27415458083 25.8333333333)
	(0 0 26.6666666667)
	(28.3678442726 -1.23856682922 26.6666666667)
	(28.3678442726 1.23856682922 26.6666666667)
	(0 0 27.5)
	(27.0810545306 -1.18238437576 27.5)
	(27.0810545306 1.18238437576 27.5)
	(0 0 28.3333333333)
	(25.4091264356 -1.10938641866 28.3333333333)
	(25.4091264356 1.10938641866 28.3333333333)
	(0 0 29.1666666667)
	(23.4648643993 -1.02449810489 29.1666666667)
	(23.4648643993 1.02449810489 29.1666666667)
	(0 0 30.0)
	(21.3796319419 -0.933454889618 30.0)
	(21.3796319419 0.933454889618 30.0)
	(0 0 30.8333333333)
	(19.2943994844 -0.842411674342 30.8333333333)
	(19.2943994844 0.842411674342 30.8333333333)
	(0 0 31.6666666667)
	(17.3501374481 -0.757523360578 31.6666666667)
	(17.3501374481 0.757523360578 31.6666666667)
	(0 0 32.5)
	(15.6782093531 -0.684525403472 32.5)
	(15.6782093531 0.684525403472 32.5)
	(0 0 33.3333333333)
	(14.3914196111 -0.628342950013 33.3333333333)
	(14.3914196111 0.628342950013 33.3333333333)
	(0 0 34.1666666667)
	(13.5763260919 -0.592755198406 34.1666666667)
	(13.5763260919 0.592755198406 34.1666666667)
	(0 0 35.0)
	(13.287341347 -0.580137851959 35.0)
	(13.287341347 0.580137851959 35.0)
	(0 0 35.8333333333)
	(13.5430244845 -0.591301218828 35.8333333333)
	(13.5430244845 0.591301218828 35.8333333333)
	(0 0 36.6666666667)
	(14.3248163963 -0.625434990856 36.6666666667)
	(14.3248163963 0.625434990856 36.6666666667)
	(0 0 37.5)
	(15.5783045309 -0.680163464736 37.5)
	(15.5783045309 0.680163464736 37.5)
	(0 0 38.3333333333)
	(17.2169310186 -0.751707442263 38.3333333333)
	(17.2169310186 0.751707442263 38.3333333333)
	(0 0 39.1666666667)
	(19.1278914475 -0.835141776448 39.1666666667)
	(19.1278914475 0.835141776448 39.1666666667)
	(0 0 40.0)
	(21.1798222975 -0.924731012145 40.0)
	(21.1798222975 0.924731012145 40.0)
	(0 0 40.8333333333)
	(23.2317531476 -1.01432024784 40.8333333333)
	(23.2317531476 1.01432024784 40.8333333333)
	(0 0 41.6666666667)
	(25.1427135765 -1.09775458203 41.6666666667)
	(25.1427135765 1.09775458203 41.6666666667)
	(0 0 42.5)
	(26.7813400642 -1.16929855955 42.5)
	(26.7813400642 1.16929855955 42.5)
	(0 0 43.3333333333)
	(28.0348281987 -1.22402703343 43.3333333333)
	(28.0348281987 1.22402703343 43.3333333333)
	(0 0 44.1666666667)
	(28.8166201105 -1.25816080546 44.1666666667)
	(28.8166201105 1.25816080546 44.1666666667)
	(0 0 45.0)
	(29.072303248 -1.26932417233 45.0)
	(29.072303248 1.26932417233 45.0)
	(0 0 45.8333333333)
	(28.7833185032 -1.25670682588 45.8333333333)
	(28.7833185032 1.25670682588 45.8333333333)
	(0 0 46.6666666667)
	(27.968224984 -1.22111907428 46.6666666667)
	(27.968224984 1.22111907428 46.6666666667)
	(0 0 47.5)
	(26.681435242 -1.16493662082 47.5)
	(26.681435242 1.16493662082 47.5)
	(0 0 48.3333333333)
	(25.0095071469 -1.09193866371 48.3333333333)
	(25.0095071469 1.09193866371 48.3333333333)
	(0 0 49.1666666667)
	(23.0652451107 -1.00705034995 49.1666666667)
	(23.0652451107 1.00705034995 49.1666666667)
	(0 0 50.0)
	(20.9800126532 -0.916007134672 50.0)
	(20.9800126532 0.916007134672 50.0)
	(0 0 50.8333333333)
	(18.8947801958 -0.824963919396 50.8333333333)
	(18.8947801958 0.824963919396 50.8333333333)
	(0 0 51.6666666667)
	(16.9505181595 -0.740075605632 51.6666666667)
	(16.9505181595 0.740075605632 51.6666666667)
	(0 0 52.5)
	(15.2785900644 -0.667077648526 52.5)
	(15.2785900644 0.667077648526 52.5)
	(0 0 53.3333333333)
	(13.9918003225 -0.610895195067 53.3333333333)
	(13.9918003225 0.610895195067 53.3333333333)
	(0 0 54.1666666667)
	(13.1767068033 -0.57530744346 54.1666666667)
	(13.1767068033 0.57530744346 54.1666666667)
	(0 0 55.0)
	(12.8877220584 -0.562690097013 55.0)
	(12.8877220584 0.562690097013 55.0)
	(0 0 55.8333333333)
	(13.1434051959 -0.573853463881 55.8333333333)
	(13.1434051959 0.573853463881 55.8333333333)
	(0 0 56.6666666667)
	(13.9251971077 -0.60798723591 56.6666666667)
	(13.9251971077 0.60798723591 56.6666666667)
	(0 0 57.5)
	(15.1786852423 -0.662715709789 57.5)
	(15.1786852423 0.662715709789 57.5)
	(0 0 58.3333333333)
	(16.81731173 -0.734259687316 58.3333333333)
	(16.81731173 0.734259687316 58.3333333333)
	(0 0 59.1666666667)
	(18.7282721588 -0.817694021502 59.1666666667)
	(18.7282721588 0.817694021502 59.1666666667)
	(0 0 60.0)
	(20.7802030089 -0.907283257199 60.0)
	(20.7802030089 0.907283257199 60.0)
	(0 0 60.8333333333)
	(22.832133859 -0.996872492896 60.8333333333)
	(22.832133859 0.996872492896 60.8333333333)
	(0 0 61.6666666667)
	(24.7430942878 -1.08030682708 61.6666666667)
	(24.7430942878 1.08030682708 61.6666666667)
	(0 0 62.5)
	(26.3817207755 -1.15185080461 62.5)
	(26.3817207755 1.15185080461 62.5)
	(0 0 63.3333333333)
	(27.6352089101 -1.20657927849 63.3333333333)
	(27.6352089101 1.20657927849 63.3333333333)
	(0 0 64.1666666667)
	(28.4170008219 -1.24071305052 64.1666666667)
	(28.4170008219 1.24071305052 64.1666666667)
	(0 0 65.0)
	(28.6726839594 -1.25187641739 65.0)
	(28.6726839594 1.25187641739 65.0)
	(0 0 65.8333333333)
	(28.3836992145 -1.23925907094 65.8333333333)
	(28.3836992145 1.23925907094 65.8333333333)
	(0 0 66.6666666667)
	(27.5686056953 -1.20367131933 66.6666666667)
	(27.5686056953 1.20367131933 66.6666666667)
	(0 0 67.5)
	(26.2818159534 -1.14748886587 67.5)
	(26.2818159534 1.14748886587 67.5)
	(0 0 68.3333333333)
	(24.6098878583 -1.07449090877 68.3333333333)
	(24.6098878583 1.07449090877 68.3333333333)
	(0 0 69.1666666667)
	(22.665625822 -0.989602595002 69.1666666667)
	(22.665625822 0.989602595002 69.1666666667)
	(0 0 70.0)
	(20.5803933646 -0.898559379726 70.0)
	(20.5803933646 0.898559379726 70.0)
	(0 0 70.8333333333)
	(18.4951609071 -0.80751616445 70.8333333333)
	(18.4951609071 0.80751616445 70.8333333333)
	(0 0 71.6666666667)
	(16.5508988709 -0.722627850686 71.6666666667)
	(16.5508988709 0.722627850686 71.6666666667)
	(0 0 72.5)
	(14.8789707758 -0.64962989358 72.5)
	(14.8789707758 0.64962989358 72.5)
	(0 0 73.3333333333)
	(13.5921810338 -0.593447440121 73.3333333333)
	(13.5921810338 0.593447440121 73.3333333333)
	(0 0 74.1666666667)
	(12.7770875146 -0.557859688514 74.1666666667)
	(12.7770875146 0.557859688514 74.1666666667)
	(0 0 75.0)
	(12.4881027698 -0.545242342067 75.0)
	(12.4881027698 0.545242342067 75.0)
	(0 0 75.8333333333)
	(12.7437859073 -0.556405708935 75.8333333333)
	(12.7437859073 0.556405708935 75.8333333333)
	(0 0 76.6666666667)
	(13.5255778191 -0.590539480963 76.6666666667)
	(13.5255778191 0.590539480963 76.6666666667)
	(0 0 77.5)
	(14.7790659536 -0.645267954843 77.5)
	(14.7790659536 0.645267954843 77.5)
	(0 0 78.3333333333)
	(16.4176924413 -0.71681193237 78.3333333333)
	(16.4176924413 0.71681193237 78.3333333333)
	(0 0 79.1666666667)
	(18.3286528702 -0.800246266555 79.1666666667)
	(18.3286528702 0.800246266555 79.1666666667)
	(0 0 80.0)
	(20.3805837203 -0.889835502253 80.0)
	(20.3805837203 0.889835502253 80.0)
	(0 0 80.8333333333)
	(22.4325145703 -0.97942473795 80.8333333333)
	(22.4325145703 0.97942473795 80.8333333333)
	(0 0 81.6666666667)
	(24.3434749992 -1.06285907214 81.6666666667)
	(24.3434749992 1.06285907214 81.6666666667)
	(0 0 82.5)
	(25.9821014869 -1.13440304966 82.5)
	(25.9821014869 1.13440304966 82.5)
	(0 0 83.3333333333)
	(27.2355896215 -1.18913152354 83.3333333333)
	(27.2355896215 1.18913152354 83.3333333333)
	(0 0 84.1666666667)
	(28.0173815333 -1.22326529557 84.1666666667)
	(28.0173815333 1.22326529557 84.1666666667)
	(0 0 85.0)
	(28.2730646708 -1.23442866244 85.0)
	(28.2730646708 1.23442866244 85.0)
	(0 0 85.8333333333)
	(27.9840799259 -1.22181131599 85.8333333333)
	(27.9840799259 1.22181131599 85.8333333333)
	(0 0 86.6666666667)
	(27.1689864067 -1.18622356438 86.6666666667)
	(27.1689864067 1.18622356438 86.6666666667)
	(0 0 87.5)
	(25.8821966647 -1.13004111093 87.5)
	(25.8821966647 1.13004111093 87.5)
	(0 0 88.3333333333)
	(24.2102685697 -1.05704315382 88.3333333333)
	(24.2102685697 1.05704315382 88.3333333333)
	(0 0 89.1666666667)
	(22.2660065334 -0.972154840056 89.1666666667)
	(22.2660065334 0.972154840056 89.1666666667)
	(0 0 90.0)
	(20.180774076 -0.88111162478 90.0)
	(20.180774076 0.88111162478 90.0)
	(0 0 90.8333333333)
	(18.0955416185 -0.790068409504 90.8333333333)
	(18.0955416185 0.790068409504 90.8333333333)
	(0 0 91.6666666667)
	(16.1512795822 -0.70518009574 91.6666666667)
	(16.1512795822 0.70518009574 91.6666666667)
	(0 0 92.5)
	(14.4793514872 -0.632182138634 92.5)
	(14.4793514872 0.632182138634 92.5)
	(0 0 93.3333333333)
	(13.1925617452 -0.575999685175 93.3333333333)
	(13.1925617452 0.575999685175 93.3333333333)
	(0 0 94.1666666667)
	(12.377468226 -0.540411933568 94.1666666667)
	(12.377468226 0.540411933568 94.1666666667)
	(0 0 95.0)
	(12.0884834811 -0.527794587121 95.0)
	(12.0884834811 0.527794587121 95.0)
	(0 0 95.8333333333)
	(12.3441666186 -0.538957953989 95.8333333333)
	(12.3441666186 0.538957953989 95.8333333333)
	(0 0 96.6666666667)
	(13.1259585304 -0.573091726017 96.6666666667)
	(13.1259585304 0.573091726017 96.6666666667)
	(0 0 97.5)
	(14.379446665 -0.627820199897 97.5)
	(14.379446665 0.627820199897 97.5)
	(0 0 98.3333333333)
	(16.0180731527 -0.699364177424 98.3333333333)
	(16.0180731527 0.699364177424 98.3333333333)
	(0 0 99.1666666667)
	(17.9290335816 -0.782798511609 99.1666666667)
	(17.9290335816 0.782798511609 99.1666666667)
	(0 0 100.0)
	(19.9809644316 -0.872387747307 100.0)
	(19.9809644316 0.872387747307 100.0)
	(0 0 100.833333333)
	(22.0328952817 -0.961976983004 100.833333333)
	(22.0328952817 0.961976983004 100.833333333)
	(0 0 101.666666667)
	(23.9438557106 -1.04541131719 101.666666667)
	(23.9438557106 1.04541131719 101.666666667)
	(0 0 102.5)
	(25.5824821983 -1.11695529472 102.5)
	(25.5824821983 1.11695529472 102.5)
	(0 0 103.333333333)
	(26.8359703328 -1.1716837686 103.333333333)
	(26.8359703328 1.1716837686 103.333333333)
	(0 0 104.166666667)
	(27.6177622446 -1.20581754062 104.166666667)
	(27.6177622446 1.20581754062 104.166666667)
	(0 0 105.0)
	(27.8734453821 -1.21698090749 105.0)
	(27.8734453821 1.21698090749 105.0)
	(0 0 105.833333333)
	(27.5844606373 -1.20436356105 105.833333333)
	(27.5844606373 1.20436356105 105.833333333)
	(0 0 106.666666667)
	(26.7693671181 -1.16877580944 106.666666667)
	(26.7693671181 1.16877580944 106.666666667)
	(0 0 107.5)
	(25.4825773761 -1.11259335598 107.5)
	(25.4825773761 1.11259335598 107.5)
	(0 0 108.333333333)
	(23.810649281 -1.03959539887 108.333333333)
	(23.810649281 1.03959539887 108.333333333)
	(0 0 109.166666667)
	(21.8663872448 -0.95470708511 109.166666667)
	(21.8663872448 0.95470708511 109.166666667)
	(0 0 110.0)
	(19.7811547873 -0.863663869834 110.0)
	(19.7811547873 0.863663869834 110.0)
	(0 0 110.833333333)
	(17.6959223299 -0.772620654557 110.833333333)
	(17.6959223299 0.772620654557 110.833333333)
	(0 0 111.666666667)
	(15.7516602936 -0.687732340793 111.666666667)
	(15.7516602936 0.687732340793 111.666666667)
	(0 0 112.5)
	(14.0797321985 -0.614734383688 112.5)
	(14.0797321985 0.614734383688 112.5)
	(0 0 113.333333333)
	(12.7929424566 -0.558551930229 113.333333333)
	(12.7929424566 0.558551930229 113.333333333)
	(0 0 114.166666667)
	(11.9778489374 -0.522964178622 114.166666667)
	(11.9778489374 0.522964178622 114.166666667)
	(0 0 115.0)
	(11.6888641925 -0.510346832174 115.0)
	(11.6888641925 0.510346832174 115.0)
	(0 0 115.833333333)
	(11.94454733 -0.521510199043 115.833333333)
	(11.94454733 0.521510199043 115.833333333)
	(0 0 116.666666667)
	(12.7263392418 -0.555643971071 116.666666667)
	(12.7263392418 0.555643971071 116.666666667)
	(0 0 117.5)
	(13.9798273764 -0.610372444951 117.5)
	(13.9798273764 0.610372444951 117.5)
	(0 0 118.333333333)
	(15.6184538641 -0.681916422478 118.333333333)
	(15.6184538641 0.681916422478 118.333333333)
	(0 0 119.166666667)
	(17.5294142929 -0.765350756663 119.166666667)
	(17.5294142929 0.765350756663 119.166666667)
	(0 0 120.0)
	(19.581345143 -0.854939992361 120.0)
	(19.581345143 0.854939992361 120.0)
	(0 0 120.833333333)
	(21.6332759931 -0.944529228058 120.833333333)
	(21.6332759931 0.944529228058 120.833333333)
	(0 0 121.666666667)
	(23.5442364219 -1.02796356224 121.666666667)
	(23.5442364219 1.02796356224 121.666666667)
	(0 0 122.5)
	(25.1828629096 -1.09950753977 122.5)
	(25.1828629096 1.09950753977 122.5)
	(0 0 123.333333333)
	(26.4363510442 -1.15423601365 123.333333333)
	(26.4363510442 1.15423601365 123.333333333)
	(0 0 124.166666667)
	(27.218142956 -1.18836978568 124.166666667)
	(27.218142956 1.18836978568 124.166666667)
	(0 0 125.0)
	(27.4738260935 -1.19953315255 125.0)
	(27.4738260935 1.19953315255 125.0)
	(0 0 125.833333333)
	(27.1848413486 -1.1869158061 125.833333333)
	(27.1848413486 1.1869158061 125.833333333)
	(0 0 126.666666667)
	(26.3697478294 -1.15132805449 126.666666667)
	(26.3697478294 1.15132805449 126.666666667)
	(0 0 127.5)
	(25.0829580875 -1.09514560103 127.5)
	(25.0829580875 1.09514560103 127.5)
	(0 0 128.333333333)
	(23.4110299924 -1.02214764393 128.333333333)
	(23.4110299924 1.02214764393 128.333333333)
	(0 0 129.166666667)
	(21.4667679562 -0.937259330164 129.166666667)
	(21.4667679562 0.937259330164 129.166666667)
	(0 0 130.0)
	(19.3815354987 -0.846216114888 130.0)
	(19.3815354987 0.846216114888 130.0)
	(0 0 130.833333333)
	(17.2963030412 -0.755172899611 130.833333333)
	(17.2963030412 0.755172899611 130.833333333)
	(0 0 131.666666667)
	(15.352041005 -0.670284585847 131.666666667)
	(15.352041005 0.670284585847 131.666666667)
	(0 0 132.5)
	(13.6801129099 -0.597286628741 132.5)
	(13.6801129099 0.597286628741 132.5)
	(0 0 133.333333333)
	(12.393323168 -0.541104175283 133.333333333)
	(12.393323168 0.541104175283 133.333333333)
	(0 0 134.166666667)
	(11.5782296488 -0.505516423676 134.166666667)
	(11.5782296488 0.505516423676 134.166666667)
	(0 0 135.0)
	(11.2892449039 -0.492899077228 135.0)
	(11.2892449039 0.492899077228 135.0)
	(0 0 135.833333333)
	(11.5449280414 -0.504062444097 135.833333333)
	(11.5449280414 0.504062444097 135.833333333)
	(0 0 136.666666667)
	(12.3267199532 -0.538196216125 136.666666667)
	(12.3267199532 0.538196216125 136.666666667)
	(0 0 137.5)
	(13.5802080877 -0.592924690005 137.5)
	(13.5802080877 0.592924690005 137.5)
	(0 0 138.333333333)
	(15.2188345754 -0.664468667532 138.333333333)
	(15.2188345754 0.664468667532 138.333333333)
	(0 0 139.166666667)
	(17.1297950043 -0.747903001717 139.166666667)
	(17.1297950043 0.747903001717 139.166666667)
	(0 0 140.0)
	(19.1817258544 -0.837492237414 140.0)
	(19.1817258544 0.837492237414 140.0)
	(0 0 140.833333333)
	(21.2336567044 -0.927081473112 140.833333333)
	(21.2336567044 0.927081473112 140.833333333)
	(0 0 141.666666667)
	(23.1446171333 -1.0105158073 141.666666667)
	(23.1446171333 1.0105158073 141.666666667)
	(0 0 142.5)
	(24.783243621 -1.08205978482 142.5)
	(24.783243621 1.08205978482 142.5)
	(0 0 143.333333333)
	(26.0367317556 -1.1367882587 143.333333333)
	(26.0367317556 1.1367882587 143.333333333)
	(0 0 144.166666667)
	(26.8185236674 -1.17092203073 144.166666667)
	(26.8185236674 1.17092203073 144.166666667)
	(0 0 145.0)
	(27.0742068049 -1.1820853976 145.0)
	(27.0742068049 1.1820853976 145.0)
	(0 0 145.833333333)
	(26.78522206 -1.16946805115 145.833333333)
	(26.78522206 1.16946805115 145.833333333)
	(0 0 146.666666667)
	(25.9701285408 -1.13388029955 146.666666667)
	(25.9701285408 1.13388029955 146.666666667)
	(0 0 147.5)
	(24.6833387988 -1.07769784609 147.5)
	(24.6833387988 1.07769784609 147.5)
	(0 0 148.333333333)
	(23.0114107038 -1.00469988898 148.333333333)
	(23.0114107038 1.00469988898 148.333333333)
	(0 0 149.166666667)
	(21.0671486675 -0.919811575218 149.166666667)
	(21.0671486675 0.919811575218 149.166666667)
	(0 0 150.0)
	(18.9819162101 -0.828768359941 150.0)
	(18.9819162101 0.828768359941 150.0)
	(0 0 150.833333333)
	(16.8966837526 -0.737725144665 150.833333333)
	(16.8966837526 0.737725144665 150.833333333)
	(0 0 151.666666667)
	(14.9524217163 -0.652836830901 151.666666667)
	(14.9524217163 0.652836830901 151.666666667)
	(0 0 152.5)
	(13.2804936213 -0.579838873795 152.5)
	(13.2804936213 0.579838873795 152.5)
	(0 0 153.333333333)
	(11.9937038793 -0.523656420337 153.333333333)
	(11.9937038793 0.523656420337 153.333333333)
	(0 0 154.166666667)
	(11.1786103601 -0.48806866873 154.166666667)
	(11.1786103601 0.48806866873 154.166666667)
	(0 0 155.0)
	(10.8896256152 -0.475451322282 155.0)
	(10.8896256152 0.475451322282 155.0)
	(0 0 155.833333333)
	(11.1453087527 -0.486614689151 155.833333333)
	(11.1453087527 0.486614689151 155.833333333)
	(0 0 156.666666667)
	(11.9271006645 -0.520748461179 156.666666667)
	(11.9271006645 0.520748461179 156.666666667)
	(0 0 157.5)
	(13.1805887991 -0.575476935059 157.5)
	(13.1805887991 0.575476935059 157.5)
	(0 0 158.333333333)
	(14.8192152868 -0.647020912586 158.333333333)
	(14.8192152868 0.647020912586 158.333333333)
	(0 0 159.166666667)
	(16.7301757157 -0.730455246771 159.166666667)
	(16.7301757157 0.730455246771 159.166666667)
	(0 0 160.0)
	(18.7821065657 -0.820044482468 160.0)
	(18.7821065657 0.820044482468 160.0)
	(0 0 160.833333333)
	(20.8340374158 -0.909633718166 160.833333333)
	(20.8340374158 0.909633718166 160.833333333)
	(0 0 161.666666667)
	(22.7449978447 -0.993068052351 161.666666667)
	(22.7449978447 0.993068052351 161.666666667)
	(0 0 162.5)
	(24.3836243324 -1.06461202988 162.5)
	(24.3836243324 1.06461202988 162.5)
	(0 0 163.333333333)
	(25.6371124669 -1.11934050376 163.333333333)
	(25.6371124669 1.11934050376 163.333333333)
	(0 0 164.166666667)
	(26.4189043787 -1.15347427579 164.166666667)
	(26.4189043787 1.15347427579 164.166666667)
	(0 0 165.0)
	(26.6745875162 -1.16463764265 165.0)
	(26.6745875162 1.16463764265 165.0)
	(0 0 165.833333333)
	(26.3856027714 -1.15202029621 165.833333333)
	(26.3856027714 1.15202029621 165.833333333)
	(0 0 166.666666667)
	(25.5705092522 -1.1164325446 166.666666667)
	(25.5705092522 1.1164325446 166.666666667)
	(0 0 167.5)
	(24.2837195102 -1.06025009114 167.5)
	(24.2837195102 1.06025009114 167.5)
	(0 0 168.333333333)
	(22.6117914151 -0.987252134035 168.333333333)
	(22.6117914151 0.987252134035 168.333333333)
	(0 0 169.166666667)
	(20.6675293789 -0.902363820271 169.166666667)
	(20.6675293789 0.902363820271 169.166666667)
	(0 0 170.0)
	(18.5822969214 -0.811320604995 170.0)
	(18.5822969214 0.811320604995 170.0)
	(0 0 170.833333333)
	(16.497064464 -0.720277389719 170.833333333)
	(16.497064464 0.720277389719 170.833333333)
	(0 0 171.666666667)
	(14.5528024277 -0.635389075955 171.666666667)
	(14.5528024277 0.635389075955 171.666666667)
	(0 0 172.5)
	(12.8808743326 -0.562391118849 172.5)
	(12.8808743326 0.562391118849 172.5)
	(0 0 173.333333333)
	(11.5940845907 -0.50620866539 173.333333333)
	(11.5940845907 0.50620866539 173.333333333)
	(0 0 174.166666667)
	(10.7789910715 -0.470620913783 174.166666667)
	(10.7789910715 0.470620913783 174.166666667)
	(0 0 175.0)
	(10.4900063266 -0.458003567336 175.0)
	(10.4900063266 0.458003567336 175.0)
	(0 0 175.833333333)
	(10.7456894641 -0.469166934205 175.833333333)
	(10.7456894641 0.469166934205 175.833333333)
	(0 0 176.666666667)
	(11.5274813759 -0.503300706233 176.666666667)
	(11.5274813759 0.503300706233 176.666666667)
	(0 0 177.5)
	(12.7809695105 -0.558029180113 177.5)
	(12.7809695105 0.558029180113 177.5)
	(0 0 178.333333333)
	(14.4195959982 -0.62957315764 178.333333333)
	(14.4195959982 0.62957315764 178.333333333)
	(0 0 179.166666667)
	(16.330556427 -0.713007491825 179.166666667)
	(16.330556427 0.713007491825 179.166666667)
	(0 0 180.0)
	(18.3824872771 -0.802596727522 180.0)
	(18.3824872771 0.802596727522 180.0)
	(0 0 180.833333333)
	(20.4344181272 -0.89218596322 180.833333333)
	(20.4344181272 0.89218596322 180.833333333)
	(0 0 181.666666667)
	(22.345378556 -0.975620297405 181.666666667)
	(22.345378556 0.975620297405 181.666666667)
	(0 0 182.5)
	(23.9840050437 -1.04716427493 182.5)
	(23.9840050437 1.04716427493 182.5)
	(0 0 183.333333333)
	(25.2374931783 -1.10189274881 183.333333333)
	(25.2374931783 1.10189274881 183.333333333)
	(0 0 184.166666667)
	(26.0192850901 -1.13602652084 184.166666667)
	(26.0192850901 1.13602652084 184.166666667)
	(0 0 185.0)
	(26.2749682276 -1.14718988771 185.0)
	(26.2749682276 1.14718988771 185.0)
	(0 0 185.833333333)
	(25.9859834827 -1.13457254126 185.833333333)
	(25.9859834827 1.13457254126 185.833333333)
	(0 0 186.666666667)
	(25.1708899635 -1.09898478965 186.666666667)
	(25.1708899635 1.09898478965 186.666666667)
	(0 0 187.5)
	(23.8841002216 -1.0428023362 187.5)
	(23.8841002216 1.0428023362 187.5)
	(0 0 188.333333333)
	(22.2121721265 -0.969804379089 188.333333333)
	(22.2121721265 0.969804379089 188.333333333)
	(0 0 189.166666667)
	(20.2679100903 -0.884916065325 189.166666667)
	(20.2679100903 0.884916065325 189.166666667)
	(0 0 190.0)
	(18.1826776328 -0.793872850049 190.0)
	(18.1826776328 0.793872850049 190.0)
	(0 0 190.833333333)
	(16.0974451753 -0.702829634773 190.833333333)
	(16.0974451753 0.702829634773 190.833333333)
	(0 0 191.666666667)
	(14.1531831391 -0.617941321009 191.666666667)
	(14.1531831391 0.617941321009 191.666666667)
	(0 0 192.5)
	(12.481255044 -0.544943363903 192.5)
	(12.481255044 0.544943363903 192.5)
	(0 0 193.333333333)
	(11.1944653021 -0.488760910444 193.333333333)
	(11.1944653021 0.488760910444 193.333333333)
	(0 0 194.166666667)
	(10.3793717829 -0.453173158837 194.166666667)
	(10.3793717829 0.453173158837 194.166666667)
	(0 0 195.0)
	(10.090387038 -0.44055581239 195.0)
	(10.090387038 0.44055581239 195.0)
	(0 0 195.833333333)
	(10.3460701755 -0.451719179258 195.833333333)
	(10.3460701755 0.451719179258 195.833333333)
	(0 0 196.666666667)
	(11.1278620873 -0.485852951287 196.666666667)
	(11.1278620873 0.485852951287 196.666666667)
	(0 0 197.5)
	(12.3813502218 -0.540581425166 197.5)
	(12.3813502218 0.540581425166 197.5)
	(0 0 198.333333333)
	(14.0199767095 -0.612125402694 198.333333333)
	(14.0199767095 0.612125402694 198.333333333)
	(0 0 199.166666667)
	(15.9309371384 -0.695559736879 199.166666667)
	(15.9309371384 0.695559736879 199.166666667)
	(0 0 200.0)
	(17.9828679885 -0.785148972576 200.0)
	(17.9828679885 0.785148972576 200.0)
	(0 0 200.833333333)
	(20.0347988385 -0.874738208273 200.833333333)
	(20.0347988385 0.874738208273 200.833333333)
	(0 0 201.666666667)
	(21.9457592674 -0.958172542459 201.666666667)
	(21.9457592674 0.958172542459 201.666666667)
	(0 0 202.5)
	(23.5843857551 -1.02971651999 202.5)
	(23.5843857551 1.02971651999 202.5)
	(0 0 203.333333333)
	(24.8378738897 -1.08444499387 203.333333333)
	(24.8378738897 1.08444499387 203.333333333)
	(0 0 204.166666667)
	(25.6196658015 -1.11857876589 204.166666667)
	(25.6196658015 1.11857876589 204.166666667)
	(0 0 205.0)
	(25.875348939 -1.12974213276 205.0)
	(25.875348939 1.12974213276 205.0)
	(0 0 205.833333333)
	(25.5863641941 -1.11712478631 205.833333333)
	(25.5863641941 1.11712478631 205.833333333)
	(0 0 206.666666667)
	(24.7712706749 -1.08153703471 206.666666667)
	(24.7712706749 1.08153703471 206.666666667)
	(0 0 207.5)
	(23.4844809329 -1.02535458125 207.5)
	(23.4844809329 1.02535458125 207.5)
	(0 0 208.333333333)
	(21.8125528379 -0.952356624143 208.333333333)
	(21.8125528379 0.952356624143 208.333333333)
	(0 0 209.166666667)
	(19.8682908016 -0.867468310379 209.166666667)
	(19.8682908016 0.867468310379 209.166666667)
	(0 0 210.0)
	(17.7830583442 -0.776425095103 210.0)
	(17.7830583442 0.776425095103 210.0)
	(0 0 210.833333333)
	(15.6978258867 -0.685381879827 210.833333333)
	(15.6978258867 0.685381879827 210.833333333)
	(0 0 211.666666667)
	(13.7535638504 -0.600493566063 211.666666667)
	(13.7535638504 0.600493566063 211.666666667)
	(0 0 212.5)
	(12.0816357554 -0.527495608957 212.5)
	(12.0816357554 0.527495608957 212.5)
	(0 0 213.333333333)
	(10.7948460134 -0.471313155498 213.333333333)
	(10.7948460134 0.471313155498 213.333333333)
	(0 0 214.166666667)
	(9.97975249422 -0.435725403891 214.166666667)
	(9.97975249422 0.435725403891 214.166666667)
	(0 0 215.0)
	(9.69076774934 -0.423108057444 215.0)
	(9.69076774934 0.423108057444 215.0)
	(0 0 215.833333333)
	(9.94645088683 -0.434271424312 215.833333333)
	(9.94645088683 0.434271424312 215.833333333)
	(0 0 216.666666667)
	(10.7282427986 -0.46840519634 216.666666667)
	(10.7282427986 0.46840519634 216.666666667)
	(0 0 217.5)
	(11.9817309332 -0.52313367022 217.5)
	(11.9817309332 0.52313367022 217.5)
	(0 0 218.333333333)
	(13.6203574209 -0.594677647747 218.333333333)
	(13.6203574209 0.594677647747 218.333333333)
	(0 0 219.166666667)
	(15.5313178498 -0.678111981933 219.166666667)
	(15.5313178498 0.678111981933 219.166666667)
	(0 0 220.0)
	(17.5832486998 -0.76770121763 220.0)
	(17.5832486998 0.76770121763 220.0)
	(0 0 220.833333333)
	(19.6351795499 -0.857290453327 220.833333333)
	(19.6351795499 0.857290453327 220.833333333)
	(0 0 221.666666667)
	(21.5461399788 -0.940724787512 221.666666667)
	(21.5461399788 0.940724787512 221.666666667)
	(0 0 222.5)
	(23.1847664665 -1.01226876504 222.5)
	(23.1847664665 1.01226876504 222.5)
	(0 0 223.333333333)
	(24.438254601 -1.06699723892 223.333333333)
	(24.438254601 1.06699723892 223.333333333)
	(0 0 224.166666667)
	(25.2200465128 -1.10113101095 224.166666667)
	(25.2200465128 1.10113101095 224.166666667)
	(0 0 225.0)
	(25.4757296503 -1.11229437782 225.0)
	(25.4757296503 1.11229437782 225.0)
	(0 0 225.833333333)
	(25.1867449055 -1.09967703137 225.833333333)
	(25.1867449055 1.09967703137 225.833333333)
	(0 0 226.666666667)
	(24.3716513863 -1.06408927976 226.666666667)
	(24.3716513863 1.06408927976 226.666666667)
	(0 0 227.5)
	(23.0848616443 -1.0079068263 227.5)
	(23.0848616443 1.0079068263 227.5)
	(0 0 228.333333333)
	(21.4129335492 -0.934908869197 228.333333333)
	(21.4129335492 0.934908869197 228.333333333)
	(0 0 229.166666667)
	(19.468671513 -0.850020555433 229.166666667)
	(19.468671513 0.850020555433 229.166666667)
	(0 0 230.0)
	(17.3834390555 -0.758977340157 230.0)
	(17.3834390555 0.758977340157 230.0)
	(0 0 230.833333333)
	(15.2982065981 -0.667934124881 230.833333333)
	(15.2982065981 0.667934124881 230.833333333)
	(0 0 231.666666667)
	(13.3539445618 -0.583045811117 231.666666667)
	(13.3539445618 0.583045811117 231.666666667)
	(0 0 232.5)
	(11.6820164667 -0.510047854011 232.5)
	(11.6820164667 0.510047854011 232.5)
	(0 0 233.333333333)
	(10.3952267248 -0.453865400552 233.333333333)
	(10.3952267248 0.453865400552 233.333333333)
	(0 0 234.166666667)