/*--------------------------------*- C++ -*----------------------------------*\
  =========                 |
  \\      /  F ield         | OpenFOAM: The Open Source CFD Toolbox
   \\    /   O peration     | Website:  https://openfoam.org
    \\  /    A nd           | Version:  8
     \\/     M anipulation  |
\*---------------------------------------------------------------------------*/
FoamFile
{
    version     2.0;
    format      ascii;
    class       dictionary;
    object      blockMeshDict;
}
// * * * * * * * * * * * * * * * * * * * * * * * * * * * * * * * * * * * * * //

convertToMeters 1e-3;

vertices
(
	(0 0 0.0)
	(21.9790608748 -0.959626522037 0.0)
	(21.9790608748 0.959626522037 0.0)
	(0 0 0.666666666667)
	(23.6274506715 -1.03159677484 0.666666666667)
	(23.6274506715 1.03159677484 0.666666666667)
	(0 0 1.33333333333)
	(25.2032157482 -1.10039616389 1.33333333333)
	(25.2032157482 1.10039616389 1.33333333333)
	(0 0 2.0)
	(26.6369054337 -1.1629924074 2.0)
	(26.6369054337 1.1629924074 2.0)
	(0 0 2.66666666667)
	(27.8652784332 -1.2166243308 2.66666666667)
	(27.8652784332 1.2166243308 2.66666666667)
	(0 0 3.33333333333)
	(28.834066776 -1.25892254333 3.33333333333)
	(28.834066776 1.25892254333 3.33333333333)
	(0 0 4.0)
	(29.5003475869 -1.28801299177 4.0)
	(29.5003475869 1.28801299177 4.0)
	(0 0 4.66666666667)
	(29.8344190213 -1.3025988656 4.66666666667)
	(29.8344190213 1.3025988656 4.66666666667)
	(0 0 5.33333333333)
	(29.8210983783 -1.30201727376 5.33333333333)
	(29.8210983783 1.30201727376 5.33333333333)
	(0 0 6.0)
	(29.460385658 -1.28626821628 6.0)
	(29.460385658 1.28626821628 6.0)
	(0 0 6.66666666667)
	(28.7674635612 -1.25601458417 6.66666666667)
	(28.7674635612 1.25601458417 6.66666666667)
	(0 0 7.33333333333)
	(27.7720339325 -1.21255318798 7.33333333333)
	(27.7720339325 1.21255318798 7.33333333333)
	(0 0 8.0)
	(26.5170196471 -1.15775808092 8.0)
	(26.5170196471 1.15775808092 8.0)
	(0 0 8.66666666667)
	(25.0566886757 -1.09399865375 8.66666666667)
	(25.0566886757 1.09399865375 8.66666666667)
	(0 0 9.33333333333)
	(23.4542823131 -1.02403608103 9.33333333333)
	(23.4542823131 1.02403608103 9.33333333333)
	(0 0 10.0)
	(21.7792512305 -0.950902644564 10.0)
	(21.7792512305 0.950902644564 10.0)
	(0 0 10.6666666667)
	(20.1042201479 -0.877769208096 10.6666666667)
	(20.1042201479 0.877769208096 10.6666666667)
	(0 0 11.3333333333)
	(18.5018137852 -0.807806635381 11.3333333333)
	(18.5018137852 0.807806635381 11.3333333333)
	(0 0 12.0)
	(17.0414828138 -0.744047208211 12.0)
	(17.0414828138 0.744047208211 12.0)
	(0 0 12.6666666667)
	(15.7864685285 -0.68925210115 12.6666666667)
	(15.7864685285 0.68925210115 12.6666666667)
	(0 0 13.3333333333)
	(14.7910388997 -0.645790704959 13.3333333333)
	(14.7910388997 0.645790704959 13.3333333333)
	(0 0 14.0)
	(14.0981168029 -0.61553707285 14.0)
	(14.0981168029 0.61553707285 14.0)
	(0 0 14.6666666667)
	(13.7374040827 -0.599788015365 14.6666666667)
	(13.7374040827 0.599788015365 14.6666666667)
	(0 0 15.3333333333)
	(13.7240834397 -0.599206423533 15.3333333333)
	(13.7240834397 0.599206423533 15.3333333333)
	(0 0 16.0)
	(14.0581548741 -0.613792297356 16.0)
	(14.0581548741 0.613792297356 16.0)
	(0 0 16.6666666667)
	(14.724435685 -0.642882745802 16.6666666667)
	(14.724435685 0.642882745802 16.6666666667)
	(0 0 17.3333333333)
	(15.6932240278 -0.685180958329 17.3333333333)
	(15.6932240278 0.685180958329 17.3333333333)
	(0 0 18.0)
	(16.9215970272 -0.738812881727 18.0)
	(16.9215970272 0.738812881727 18.0)
	(0 0 18.6666666667)
	(18.3552867127 -0.801409125234 18.6666666667)
	(18.3552867127 0.801409125234 18.6666666667)
	(0 0 19.3333333333)
	(19.9310517895 -0.870208514286 19.3333333333)
	(19.9310517895 0.870208514286 19.3333333333)
	(0 0 20.0)
	(21.5794415862 -0.942178767091 20.0)
	(21.5794415862 0.942178767091 20.0)
	(0 0 20.6666666667)
	(23.2278313829 -1.0141490199 20.6666666667)
	(23.2278313829 1.0141490199 20.6666666667)
	(0 0 21.3333333333)
	(24.8035964596 -1.08294840895 21.3333333333)
	(24.8035964596 1.08294840895 21.3333333333)
	(0 0 22.0)
	(26.2372861451 -1.14554465246 22.0)
	(26.2372861451 1.14554465246 22.0)
	(0 0 22.6666666667)
	(27.4656591445 -1.19917657585 22.6666666667)
	(27.4656591445 1.19917657585 22.6666666667)
	(0 0 23.3333333333)
	(28.4344474874 -1.24147478838 23.3333333333)
	(28.4344474874 1.24147478838 23.3333333333)
	(0 0 24.0)
	(29.1007282983 -1.27056523683 24.0)
	(29.1007282983 1.27056523683 24.0)
	(0 0 24.6666666667)
	(29.4347997326 -1.28515111065 24.6666666667)
	(29.4347997326 1.28515111065 24.6666666667)
	(0 0 25.3333333333)
	(29.4214790897 -1.28456951882 25.3333333333)
	(29.4214790897 1.28456951882 25.3333333333)
	(0 0 26.0)
	(29.0607663694 -1.26882046133 26.0)
	(29.0607663694 1.26882046133 26.0)
	(0 0 26.6666666667)
	(28.3678442726 -1.23856682922 26.6666666667)
	(28.3678442726 1.23856682922 26.6666666667)
	(0 0 27.3333333333)
	(27.3724146438 -1.19510543303 27.3333333333)
	(27.3724146438 1.19510543303 27.3333333333)
	(0 0 28.0)
	(26.1174003585 -1.14031032597 28.0)
	(26.1174003585 1.14031032597 28.0)
	(0 0 28.6666666667)
	(24.6570693871 -1.0765508988 28.6666666667)
	(24.6570693871 1.0765508988 28.6666666667)
	(0 0 29.3333333333)
	(23.0546630245 -1.00658832609 29.3333333333)
	(23.0546630245 1.00658832609 29.3333333333)
	(0 0 30.0)
	(21.3796319419 -0.933454889618 30.0)
	(21.3796319419 0.933454889618 30.0)
	(0 0 30.6666666667)
	(19.7046008592 -0.86032145315 30.6666666667)
	(19.7046008592 0.86032145315 30.6666666667)
	(0 0 31.3333333333)
	(18.1021944966 -0.790358880435 31.3333333333)
	(18.1021944966 0.790358880435 31.3333333333)
	(0 0 32.0)
	(16.6418635252 -0.726599453265 32.0)
	(16.6418635252 0.726599453265 32.0)
	(0 0 32.6666666667)
	(15.3868492399 -0.671804346204 32.6666666667)
	(15.3868492399 0.671804346204 32.6666666667)
	(0 0 33.3333333333)
	(14.3914196111 -0.628342950013 33.3333333333)
	(14.3914196111 0.628342950013 33.3333333333)
	(0 0 34.0)
	(13.6984975143 -0.598089317904 34.0)
	(13.6984975143 0.598089317904 34.0)
	(0 0 34.6666666667)
	(13.337784794 -0.582340260418 34.6666666667)
	(13.337784794 0.582340260418 34.6666666667)
	(0 0 35.3333333333)
	(13.3244641511 -0.581758668587 35.3333333333)
	(13.3244641511 0.581758668587 35.3333333333)
	(0 0 36.0)
	(13.6585355854 -0.59634454241 36.0)
	(13.6585355854 0.59634454241 36.0)
	(0 0 36.6666666667)
	(14.3248163963 -0.625434990856 36.6666666667)
	(14.3248163963 0.625434990856 36.6666666667)
	(0 0 37.3333333333)
	(15.2936047392 -0.667733203383 37.3333333333)
	(15.2936047392 0.667733203383 37.3333333333)
	(0 0 38.0)
	(16.5219777386 -0.721365126781 38.0)
	(16.5219777386 0.721365126781 38.0)
	(0 0 38.6666666667)
	(17.9556674241 -0.783961370288 38.6666666667)
	(17.9556674241 0.783961370288 38.6666666667)
	(0 0 39.3333333333)
	(19.5314325008 -0.85276075934 39.3333333333)
	(19.5314325008 0.85276075934 39.3333333333)
	(0 0 40.0)
	(21.1798222975 -0.924731012145 40.0)
	(21.1798222975 0.924731012145 40.0)
	(0 0 40.6666666667)
	(22.8282120942 -0.99670126495 40.6666666667)
	(22.8282120942 0.99670126495 40.6666666667)
	(0 0 41.3333333333)
	(24.403977171 -1.065500654 41.3333333333)
	(24.403977171 1.065500654 41.3333333333)
	(0 0 42.0)
	(25.8376668565 -1.12809689751 42.0)
	(25.8376668565 1.12809689751 42.0)
	(0 0 42.6666666667)
	(27.0660398559 -1.18172882091 42.6666666667)
	(27.0660398559 1.18172882091 42.6666666667)
	(0 0 43.3333333333)
	(28.0348281987 -1.22402703343 43.3333333333)
	(28.0348281987 1.22402703343 43.3333333333)
	(0 0 44.0)
	(28.7011090096 -1.25311748188 44.0)
	(28.7011090096 1.25311748188 44.0)
	(0 0 44.6666666667)
	(29.035180444 -1.2677033557 44.6666666667)
	(29.035180444 1.2677033557 44.6666666667)
	(0 0 45.3333333333)
	(29.021859801 -1.26712176387 45.3333333333)
	(29.021859801 1.26712176387 45.3333333333)
	(0 0 46.0)
	(28.6611470808 -1.25137270639 46.0)
	(28.6611470808 1.25137270639 46.0)
	(0 0 46.6666666667)
	(27.968224984 -1.22111907428 46.6666666667)
	(27.968224984 1.22111907428 46.6666666667)
	(0 0 47.3333333333)
	(26.9727953552 -1.17765767809 47.3333333333)
	(26.9727953552 1.17765767809 47.3333333333)
	(0 0 48.0)
	(25.7177810699 -1.12286257103 48.0)
	(25.7177810699 1.12286257103 48.0)
	(0 0 48.6666666667)
	(24.2574500985 -1.05910314386 48.6666666667)
	(24.2574500985 1.05910314386 48.6666666667)
	(0 0 49.3333333333)
	(22.6550437358 -0.98914057114 49.3333333333)
	(22.6550437358 0.98914057114 49.3333333333)
	(0 0 50.0)
	(20.9800126532 -0.916007134672 50.0)
	(20.9800126532 0.916007134672 50.0)
	(0 0 50.6666666667)
	(19.3049815706 -0.842873698204 50.6666666667)
	(19.3049815706 0.842873698204 50.6666666667)
	(0 0 51.3333333333)
	(17.702575208 -0.772911125489 51.3333333333)
	(17.702575208 0.772911125489 51.3333333333)
	(0 0 52.0)
	(16.2422442366 -0.709151698318 52.0)
	(16.2422442366 0.709151698318 52.0)
	(0 0 52.6666666667)
	(14.9872299512 -0.654356591258 52.6666666667)
	(14.9872299512 0.654356591258 52.6666666667)
	(0 0 53.3333333333)
	(13.9918003225 -0.610895195067 53.3333333333)
	(13.9918003225 0.610895195067 53.3333333333)
	(0 0 54.0)
	(13.2988782257 -0.580641562958 54.0)
	(13.2988782257 0.580641562958 54.0)
	(0 0 54.6666666667)
	(12.9381655054 -0.564892505472 54.6666666667)
	(12.9381655054 0.564892505472 54.6666666667)
	(0 0 55.3333333333)
	(12.9248448624 -0.564310913641 55.3333333333)
	(12.9248448624 0.564310913641 55.3333333333)
	(0 0 56.0)
	(13.2589162968 -0.578896787463 56.0)
	(13.2589162968 0.578896787463 56.0)
	(0 0 56.6666666667)
	(13.9251971077 -0.60798723591 56.6666666667)
	(13.9251971077 0.60798723591 56.6666666667)
	(0 0 57.3333333333)
	(14.8939854506 -0.650285448437 57.3333333333)
	(14.8939854506 0.650285448437 57.3333333333)
	(0 0 58.0)
	(16.12235845 -0.703917371835 58.0)
	(16.12235845 0.703917371835 58.0)
	(0 0 58.6666666667)
	(17.5560481355 -0.766513615342 58.6666666667)
	(17.5560481355 0.766513615342 58.6666666667)
	(0 0 59.3333333333)
	(19.1318132122 -0.835313004394 59.3333333333)
	(19.1318132122 0.835313004394 59.3333333333)
	(0 0 60.0)
	(20.7802030089 -0.907283257199 60.0)
	(20.7802030089 0.907283257199 60.0)
	(0 0 60.6666666667)
	(22.4285928056 -0.979253510004 60.6666666667)
	(22.4285928056 0.979253510004 60.6666666667)
	(0 0 61.3333333333)
	(24.0043578823 -1.04805289906 61.3333333333)
	(24.0043578823 1.04805289906 61.3333333333)
	(0 0 62.0)
	(25.4380475678 -1.11064914256 62.0)
	(25.4380475678 1.11064914256 62.0)
	(0 0 62.6666666667)
	(26.6664205673 -1.16428106596 62.6666666667)
	(26.6664205673 1.16428106596 62.6666666667)
	(0 0 63.3333333333)
	(27.6352089101 -1.20657927849 63.3333333333)
	(27.6352089101 1.20657927849 63.3333333333)
	(0 0 64.0)
	(28.301489721 -1.23566972693 64.0)
	(28.301489721 1.23566972693 64.0)
	(0 0 64.6666666667)
	(28.6355611554 -1.25025560076 64.6666666667)
	(28.6355611554 1.25025560076 64.6666666667)
	(0 0 65.3333333333)
	(28.6222405124 -1.24967400893 65.3333333333)
	(28.6222405124 1.24967400893 65.3333333333)
	(0 0 66.0)
	(28.2615277921 -1.23392495144 66.0)
	(28.2615277921 1.23392495144 66.0)
	(0 0 66.6666666667)
	(27.5686056953 -1.20367131933 66.6666666667)
	(27.5686056953 1.20367131933 66.6666666667)
	(0 0 67.3333333333)
	(26.5731760666 -1.16020992314 67.3333333333)
	(26.5731760666 1.16020992314 67.3333333333)
	(0 0 68.0)
	(25.3181617812 -1.10541481608 68.0)
	(25.3181617812 1.10541481608 68.0)
	(0 0 68.6666666667)
	(23.8578308098 -1.04165538891 68.6666666667)
	(23.8578308098 1.04165538891 68.6666666667)
	(0 0 69.3333333333)
	(22.2554244472 -0.971692816194 69.3333333333)
	(22.2554244472 0.971692816194 69.3333333333)
	(0 0 70.0)
	(20.5803933646 -0.898559379726 70.0)
	(20.5803933646 0.898559379726 70.0)
	(0 0 70.6666666667)
	(18.905362282 -0.825425943258 70.6666666667)
	(18.905362282 0.825425943258 70.6666666667)
	(0 0 71.3333333333)
	(17.3029559193 -0.755463370543 71.3333333333)
	(17.3029559193 0.755463370543 71.3333333333)
	(0 0 72.0)
	(15.8426249479 -0.691703943372 72.0)
	(15.8426249479 0.691703943372 72.0)
	(0 0 72.6666666667)
	(14.5876106626 -0.636908836311 72.6666666667)
	(14.5876106626 0.636908836311 72.6666666667)
	(0 0 73.3333333333)
	(13.5921810338 -0.593447440121 73.3333333333)
	(13.5921810338 0.593447440121 73.3333333333)
	(0 0 74.0)
	(12.899258937 -0.563193808012 74.0)
	(12.899258937 0.563193808012 74.0)
	(0 0 74.6666666667)
	(12.5385462168 -0.547444750526 74.6666666667)
	(12.5385462168 0.547444750526 74.6666666667)
	(0 0 75.3333333333)
	(12.5252255738 -0.546863158695 75.3333333333)
	(12.5252255738 0.546863158695 75.3333333333)
	(0 0 76.0)
	(12.8592970082 -0.561449032517 76.0)
	(12.8592970082 0.561449032517 76.0)
	(0 0 76.6666666667)
	(13.5255778191 -0.590539480963 76.6666666667)
	(13.5255778191 0.590539480963 76.6666666667)
	(0 0 77.3333333333)
	(14.4943661619 -0.632837693491 77.3333333333)
	(14.4943661619 0.632837693491 77.3333333333)
	(0 0 78.0)
	(15.7227391613 -0.686469616888 78.0)
	(15.7227391613 0.686469616888 78.0)
	(0 0 78.6666666667)
	(17.1564288468 -0.749065860396 78.6666666667)
	(17.1564288468 0.749065860396 78.6666666667)
	(0 0 79.3333333333)
	(18.7321939236 -0.817865249448 79.3333333333)
	(18.7321939236 0.817865249448 79.3333333333)
	(0 0 80.0)
	(20.3805837203 -0.889835502253 80.0)
	(20.3805837203 0.889835502253 80.0)
	(0 0 80.6666666667)
	(22.028973517 -0.961805755058 80.6666666667)
	(22.028973517 0.961805755058 80.6666666667)
	(0 0 81.3333333333)
	(23.6047385937 -1.03060514411 81.3333333333)
	(23.6047385937 1.03060514411 81.3333333333)
	(0 0 82.0)
	(25.0384282792 -1.09320138762 82.0)
	(25.0384282792 1.09320138762 82.0)
	(0 0 82.6666666667)
	(26.2668012786 -1.14683331102 82.6666666667)
	(26.2668012786 1.14683331102 82.6666666667)
	(0 0 83.3333333333)
	(27.2355896215 -1.18913152354 83.3333333333)
	(27.2355896215 1.18913152354 83.3333333333)
	(0 0 84.0)
	(27.9018704324 -1.21822197199 84.0)
	(27.9018704324 1.21822197199 84.0)
	(0 0 84.6666666667)
	(28.2359418667 -1.23280784581 84.6666666667)
	(28.2359418667 1.23280784581 84.6666666667)
	(0 0 85.3333333333)
	(28.2226212238 -1.23222625398 85.3333333333)
	(28.2226212238 1.23222625398 85.3333333333)
	(0 0 86.0)
	(27.8619085035 -1.21647719649 86.0)
	(27.8619085035 1.21647719649 86.0)
	(0 0 86.6666666667)
	(27.1689864067 -1.18622356438 86.6666666667)
	(27.1689864067 1.18622356438 86.6666666667)
	(0 0 87.3333333333)
	(26.1735567779 -1.14276216819 87.3333333333)
	(26.1735567779 1.14276216819 87.3333333333)
	(0 0 88.0)
	(24.9185424926 -1.08796706113 88.0)
	(24.9185424926 1.08796706113 88.0)
	(0 0 88.6666666667)
	(23.4582115212 -1.02420763396 88.6666666667)
	(23.4582115212 1.02420763396 88.6666666667)
	(0 0 89.3333333333)
	(21.8558051586 -0.954245061248 89.3333333333)
	(21.8558051586 0.954245061248 89.3333333333)
	(0 0 90.0)
	(20.180774076 -0.88111162478 90.0)
	(20.180774076 0.88111162478 90.0)
	(0 0 90.6666666667)
	(18.5057429933 -0.807978188312 90.6666666667)
	(18.5057429933 0.807978188312 90.6666666667)
	(0 0 91.3333333333)
	(16.9033366307 -0.738015615597 91.3333333333)
	(16.9033366307 0.738015615597 91.3333333333)
	(0 0 92.0)
	(15.4430056593 -0.674256188426 92.0)
	(15.4430056593 0.674256188426 92.0)
	(0 0 92.6666666667)
	(14.187991374 -0.619461081365 92.6666666667)
	(14.187991374 0.619461081365 92.6666666667)
	(0 0 93.3333333333)
	(13.1925617452 -0.575999685175 93.3333333333)
	(13.1925617452 0.575999685175 93.3333333333)
	(0 0 94.0)
	(12.4996396484 -0.545746053066 94.0)
	(12.4996396484 0.545746053066 94.0)
	(0 0 94.6666666667)
	(12.1389269281 -0.52999699558 94.6666666667)
	(12.1389269281 0.52999699558 94.6666666667)
	(0 0 95.3333333333)
	(12.1256062852 -0.529415403748 95.3333333333)
	(12.1256062852 0.529415403748 95.3333333333)
	(0 0 96.0)
	(12.4596777195 -0.544001277571 96.0)
	(12.4596777195 0.544001277571 96.0)
	(0 0 96.6666666667)
	(13.1259585304 -0.573091726017 96.6666666667)
	(13.1259585304 0.573091726017 96.6666666667)
	(0 0 97.3333333333)
	(14.0947468733 -0.615389938545 97.3333333333)
	(14.0947468733 0.615389938545 97.3333333333)
	(0 0 98.0)
	(15.3231198727 -0.669021861942 98.0)
	(15.3231198727 0.669021861942 98.0)
	(0 0 98.6666666667)
	(16.7568095582 -0.73161810545 98.6666666667)
	(16.7568095582 0.73161810545 98.6666666667)
	(0 0 99.3333333333)
	(18.3325746349 -0.800417494502 99.3333333333)
	(18.3325746349 0.800417494502 99.3333333333)
	(0 0 100.0)
	(19.9809644316 -0.872387747307 100.0)
	(19.9809644316 0.872387747307 100.0)
	(0 0 100.666666667)
	(21.6293542283 -0.944358000112 100.666666667)
	(21.6293542283 0.944358000112 100.666666667)
	(0 0 101.333333333)
	(23.2051193051 -1.01315738916 101.333333333)
	(23.2051193051 1.01315738916 101.333333333)
	(0 0 102.0)
	(24.6388089906 -1.07575363267 102.0)
	(24.6388089906 1.07575363267 102.0)
	(0 0 102.666666667)
	(25.86718199 -1.12938555607 102.666666667)
	(25.86718199 1.12938555607 102.666666667)
	(0 0 103.333333333)
	(26.8359703328 -1.1716837686 103.333333333)
	(26.8359703328 1.1716837686 103.333333333)
	(0 0 104.0)
	(27.5022511437 -1.20077421704 104.0)
	(27.5022511437 1.20077421704 104.0)
	(0 0 104.666666667)
	(27.8363225781 -1.21536009086 104.666666667)
	(27.8363225781 1.21536009086 104.666666667)
	(0 0 105.333333333)
	(27.8230019351 -1.21477849903 105.333333333)
	(27.8230019351 1.21477849903 105.333333333)
	(0 0 106.0)
	(27.4622892149 -1.19902944155 106.0)
	(27.4622892149 1.19902944155 106.0)
	(0 0 106.666666667)
	(26.7693671181 -1.16877580944 106.666666667)
	(26.7693671181 1.16877580944 106.666666667)
	(0 0 107.333333333)
	(25.7739374893 -1.12531441325 107.333333333)
	(25.7739374893 1.12531441325 107.333333333)
	(0 0 108.0)
	(24.518923204 -1.07051930619 108.0)
	(24.518923204 1.07051930619 108.0)
	(0 0 108.666666667)
	(23.0585922326 -1.00675987902 108.666666667)
	(23.0585922326 1.00675987902 108.666666667)
	(0 0 109.333333333)
	(21.4561858699 -0.936797306302 109.333333333)
	(21.4561858699 0.936797306302 109.333333333)
	(0 0 110.0)
	(19.7811547873 -0.863663869834 110.0)
	(19.7811547873 0.863663869834 110.0)
	(0 0 110.666666667)
	(18.1061237047 -0.790530433366 110.666666667)
	(18.1061237047 0.790530433366 110.666666667)
	(0 0 111.333333333)
	(16.5037173421 -0.720567860651 111.333333333)
	(16.5037173421 0.720567860651 111.333333333)
	(0 0 112.0)
	(15.0433863707 -0.65680843348 112.0)
	(15.0433863707 0.65680843348 112.0)
	(0 0 112.666666667)
	(13.7883720853 -0.602013326419 112.666666667)
	(13.7883720853 0.602013326419 112.666666667)
	(0 0 113.333333333)
	(12.7929424566 -0.558551930229 113.333333333)
	(12.7929424566 0.558551930229 113.333333333)
	(0 0 114.0)
	(12.1000203598 -0.52829829812 114.0)
	(12.1000203598 0.52829829812 114.0)
	(0 0 114.666666667)
	(11.7393076395 -0.512549240634 114.666666667)
	(11.7393076395 0.512549240634 114.666666667)
	(0 0 115.333333333)
	(11.7259869966 -0.511967648802 115.333333333)
	(11.7259869966 0.511967648802 115.333333333)
	(0 0 116.0)
	(12.0600584309 -0.526553522625 116.0)
	(12.0600584309 0.526553522625 116.0)
	(0 0 116.666666667)
	(12.7263392418 -0.555643971071 116.666666667)
	(12.7263392418 0.555643971071 116.666666667)
	(0 0 117.333333333)
	(13.6951275847 -0.597942183598 117.333333333)
	(13.6951275847 0.597942183598 117.333333333)
	(0 0 118.0)
	(14.9235005841 -0.651574106996 118.0)
	(14.9235005841 0.651574106996 118.0)
	(0 0 118.666666667)
	(16.3571902696 -0.714170350504 118.666666667)
	(16.3571902696 0.714170350504 118.666666667)
	(0 0 119.333333333)
	(17.9329553463 -0.782969739556 119.333333333)
	(17.9329553463 0.782969739556 119.333333333)
	(0 0 120.0)
	(19.581345143 -0.854939992361 120.0)
	(19.581345143 0.854939992361 120.0)
	(0 0 120.666666667)
	(21.2297349397 -0.926910245166 120.666666667)
	(21.2297349397 0.926910245166 120.666666667)
	(0 0 121.333333333)
	(22.8055000164 -0.995709634218 121.333333333)
	(22.8055000164 0.995709634218 121.333333333)
	(0 0 122.0)
	(24.2391897019 -1.05830587772 122.0)
	(24.2391897019 1.05830587772 122.0)
	(0 0 122.666666667)
	(25.4675627014 -1.11193780112 122.666666667)
	(25.4675627014 1.11193780112 122.666666667)
	(0 0 123.333333333)
	(26.4363510442 -1.15423601365 123.333333333)
	(26.4363510442 1.15423601365 123.333333333)
	(0 0 124.0)
	(27.1026318551 -1.1833264621 124.0)
	(27.1026318551 1.1833264621 124.0)
	(0 0 124.666666667)
	(27.4367032895 -1.19791233592 124.666666667)
	(27.4367032895 1.19791233592 124.666666667)
	(0 0 125.333333333)
	(27.4233826465 -1.19733074409 125.333333333)
	(27.4233826465 1.19733074409 125.333333333)
	(0 0 126.0)
	(27.0626699262 -1.1815816866 126.0)
	(27.0626699262 1.1815816866 126.0)
	(0 0 126.666666667)
	(26.3697478294 -1.15132805449 126.666666667)
	(26.3697478294 1.15132805449 126.666666667)
	(0 0 127.333333333)
	(25.3743182007 -1.1078666583 127.333333333)
	(25.3743182007 1.1078666583 127.333333333)
	(0 0 128.0)
	(24.1193039154 -1.05307155124 128.0)
	(24.1193039154 1.05307155124 128.0)
	(0 0 128.666666667)
	(22.6589729439 -0.989312124071 128.666666667)
	(22.6589729439 0.989312124071 128.666666667)
	(0 0 129.333333333)
	(21.0565665813 -0.919349551356 129.333333333)
	(21.0565665813 0.919349551356 129.333333333)
	(0 0 130.0)
	(19.3815354987 -0.846216114888 130.0)
	(19.3815354987 0.846216114888 130.0)
	(0 0 130.666666667)
	(17.7065044161 -0.773082678419 130.666666667)
	(17.7065044161 0.773082678419 130.666666667)
	(0 0 131.333333333)
	(16.1040980534 -0.703120105704 131.333333333)
	(16.1040980534 0.703120105704 131.333333333)
	(0 0 132.0)
	(14.643767082 -0.639360678534 132.0)
	(14.643767082 0.639360678534 132.0)
	(0 0 132.666666667)
	(13.3887527967 -0.584565571473 132.666666667)
	(13.3887527967 0.584565571473 132.666666667)
	(0 0 133.333333333)
	(12.393323168 -0.541104175283 133.333333333)
	(12.393323168 0.541104175283 133.333333333)
	(0 0 134.0)
	(11.7004010711 -0.510850543173 134.0)
	(11.7004010711 0.510850543173 134.0)
	(0 0 134.666666667)
	(11.3396883509 -0.495101485688 134.666666667)
	(11.3396883509 0.495101485688 134.666666667)
	(0 0 135.333333333)
	(11.3263677079 -0.494519893856 135.333333333)
	(11.3263677079 0.494519893856 135.333333333)
	(0 0 136.0)
	(11.6604391423 -0.509105767679 136.0)
	(11.6604391423 0.509105767679 136.0)
	(0 0 136.666666667)
	(12.3267199532 -0.538196216125 136.666666667)
	(12.3267199532 0.538196216125 136.666666667)
	(0 0 137.333333333)
	(13.295508296 -0.580494428652 137.333333333)
	(13.295508296 0.580494428652 137.333333333)
	(0 0 138.0)
	(14.5238812954 -0.63412635205 138.0)
	(14.5238812954 0.63412635205 138.0)
	(0 0 138.666666667)
	(15.9575709809 -0.696722595558 138.666666667)
	(15.9575709809 0.696722595558 138.666666667)
	(0 0 139.333333333)
	(17.5333360577 -0.765521984609 139.333333333)
	(17.5333360577 0.765521984609 139.333333333)
	(0 0 140.0)
	(19.1817258544 -0.837492237414 140.0)
	(19.1817258544 0.837492237414 140.0)
	(0 0 140.666666667)
	(20.8301156511 -0.909462490219 140.666666667)
	(20.8301156511 0.909462490219 140.666666667)
	(0 0 141.333333333)
	(22.4058807278 -0.978261879271 141.333333333)
	(22.4058807278 0.978261879271 141.333333333)
	(0 0 142.0)
	(23.8395704133 -1.04085812278 142.0)
	(23.8395704133 1.04085812278 142.0)
	(0 0 142.666666667)
	(25.0679434127 -1.09449004618 142.666666667)
	(25.0679434127 1.09449004618 142.666666667)
	(0 0 143.333333333)
	(26.0367317556 -1.1367882587 143.333333333)
	(26.0367317556 1.1367882587 143.333333333)
	(0 0 144.0)
	(26.7030125665 -1.16587870715 144.0)
	(26.7030125665 1.16587870715 144.0)
	(0 0 144.666666667)
	(27.0370840008 -1.18046458097 144.666666667)
	(27.0370840008 1.18046458097 144.666666667)
	(0 0 145.333333333)
	(27.0237633579 -1.17988298914 145.333333333)
	(27.0237633579 1.17988298914 145.333333333)
	(0 0 146.0)
	(26.6630506376 -1.16413393166 146.0)
	(26.6630506376 1.16413393166 146.0)
	(0 0 146.666666667)
	(25.9701285408 -1.13388029955 146.666666667)
	(25.9701285408 1.13388029955 146.666666667)
	(0 0 147.333333333)
	(24.974698912 -1.09041890336 147.333333333)
	(24.974698912 1.09041890336 147.333333333)
	(0 0 148.0)
	(23.7196846267 -1.0356237963 148.0)
	(23.7196846267 1.0356237963 148.0)
	(0 0 148.666666667)
	(22.2593536553 -0.971864369124 148.666666667)
	(22.2593536553 0.971864369124 148.666666667)
	(0 0 149.333333333)
	(20.6569472927 -0.901901796409 149.333333333)
	(20.6569472927 0.901901796409 149.333333333)
	(0 0 150.0)
	(18.9819162101 -0.828768359941 150.0)
	(18.9819162101 0.828768359941 150.0)
	(0 0 150.666666667)
	(17.3068851274 -0.755634923473 150.666666667)
	(17.3068851274 0.755634923473 150.666666667)
	(0 0 151.333333333)
	(15.7044787648 -0.685672350758 151.333333333)
	(15.7044787648 0.685672350758 151.333333333)
	(0 0 152.0)
	(14.2441477934 -0.621912923588 152.0)
	(14.2441477934 0.621912923588 152.0)
	(0 0 152.666666667)
	(12.9891335081 -0.567117816527 152.666666667)
	(12.9891335081 0.567117816527 152.666666667)
	(0 0 153.333333333)
	(11.9937038793 -0.523656420337 153.333333333)
	(11.9937038793 0.523656420337 153.333333333)
	(0 0 154.0)
	(11.3007817825 -0.493402788227 154.0)
	(11.3007817825 0.493402788227 154.0)
	(0 0 154.666666667)
	(10.9400690622 -0.477653730742 154.666666667)
	(10.9400690622 0.477653730742 154.666666667)
	(0 0 155.333333333)
	(10.9267484193 -0.47707213891 155.333333333)
	(10.9267484193 0.47707213891 155.333333333)
	(0 0 156.0)
	(11.2608198536 -0.491658012733 156.0)
	(11.2608198536 0.491658012733 156.0)
	(0 0 156.666666667)
	(11.9271006645 -0.520748461179 156.666666667)
	(11.9271006645 0.520748461179 156.666666667)
	(0 0 157.333333333)
	(12.8958890074 -0.563046673706 157.333333333)
	(12.8958890074 0.563046673706 157.333333333)
	(0 0 158.0)
	(14.1242620068 -0.616678597104 158.0)
	(14.1242620068 0.616678597104 158.0)
	(0 0 158.666666667)
	(15.5579516923 -0.679274840611 158.666666667)
	(15.5579516923 0.679274840611 158.666666667)
	(0 0 159.333333333)
	(17.133716769 -0.748074229663 159.333333333)
	(17.133716769 0.748074229663 159.333333333)
	(0 0 160.0)
	(18.7821065657 -0.820044482468 160.0)
	(18.7821065657 0.820044482468 160.0)
	(0 0 160.666666667)
	(20.4304963624 -0.892014735273 160.666666667)
	(20.4304963624 0.892014735273 160.666666667)
	(0 0 161.333333333)
	(22.0062614392 -0.960814124325 161.333333333)
	(22.0062614392 0.960814124325 161.333333333)
	(0 0 162.0)
	(23.4399511247 -1.02341036783 162.0)
	(23.4399511247 1.02341036783 162.0)
	(0 0 162.666666667)
	(24.6683241241 -1.07704229123 162.666666667)
	(24.6683241241 1.07704229123 162.666666667)
	(0 0 163.333333333)
	(25.6371124669 -1.11934050376 163.333333333)
	(25.6371124669 1.11934050376 163.333333333)
	(0 0 164.0)
	(26.3033932778 -1.1484309522 164.0)
	(26.3033932778 1.1484309522 164.0)
	(0 0 164.666666667)
	(26.6374647122 -1.16301682603 164.666666667)
	(26.6374647122 1.16301682603 164.666666667)
	(0 0 165.333333333)
	(26.6241440692 -1.1624352342 165.333333333)
	(26.6241440692 1.1624352342 165.333333333)
	(0 0 166.0)
	(26.263431349 -1.14668617671 166.0)
	(26.263431349 1.14668617671 166.0)
	(0 0 166.666666667)
	(25.5705092522 -1.1164325446 166.666666667)
	(25.5705092522 1.1164325446 166.666666667)
	(0 0 167.333333333)
	(24.5750796234 -1.07297114841 167.333333333)
	(24.5750796234 1.07297114841 167.333333333)
	(0 0 168.0)
	(23.3200653381 -1.01817604135 168.0)
	(23.3200653381 1.01817604135 168.0)
	(0 0 168.666666667)
	(21.8597343667 -0.954416614178 168.666666667)
	(21.8597343667 0.954416614178 168.666666667)
	(0 0 169.333333333)
	(20.257328004 -0.884454041463 169.333333333)
	(20.257328004 0.884454041463 169.333333333)
	(0 0 170.0)
	(18.5822969214 -0.811320604995 170.0)
	(18.5822969214 0.811320604995 170.0)
	(0 0 170.666666667)
	(16.9072658388 -0.738187168527 170.666666667)
	(16.9072658388 0.738187168527 170.666666667)
	(0 0 171.333333333)
	(15.3048594762 -0.668224595812 171.333333333)
	(15.3048594762 0.668224595812 171.333333333)
	(0 0 172.0)
	(13.8445285048 -0.604465168642 172.0)
	(13.8445285048 0.604465168642 172.0)
	(0 0 172.666666667)
	(12.5895142194 -0.549670061581 172.666666667)
	(12.5895142194 0.549670061581 172.666666667)
	(0 0 173.333333333)
	(11.5940845907 -0.50620866539 173.333333333)
	(11.5940845907 0.50620866539 173.333333333)
	(0 0 174.0)
	(10.9011624939 -0.475955033281 174.0)
	(10.9011624939 0.475955033281 174.0)
	(0 0 174.666666667)
	(10.5404497736 -0.460205975795 174.666666667)
	(10.5404497736 0.460205975795 174.666666667)
	(0 0 175.333333333)
	(10.5271291307 -0.459624383964 175.333333333)
	(10.5271291307 0.459624383964 175.333333333)
	(0 0 176.0)
	(10.861200565 -0.474210257787 176.0)
	(10.861200565 0.474210257787 176.0)
	(0 0 176.666666667)
	(11.5274813759 -0.503300706233 176.666666667)
	(11.5274813759 0.503300706233 176.666666667)
	(0 0 177.333333333)
	(12.4962697188 -0.54559891876 177.333333333)
	(12.4962697188 0.54559891876 177.333333333)
	(0 0 178.0)
	(13.7246427182 -0.599230842158 178.0)
	(13.7246427182 0.599230842158 178.0)
	(0 0 178.666666667)
	(15.1583324037 -0.661827085665 178.666666667)
	(15.1583324037 0.661827085665 178.666666667)
	(0 0 179.333333333)
	(16.7340974804 -0.730626474717 179.333333333)
	(16.7340974804 0.730626474717 179.333333333)
	(0 0 180.0)
	(18.3824872771 -0.802596727522 180.0)
	(18.3824872771 0.802596727522 180.0)
	(0 0 180.666666667)
	(20.0308770738 -0.874566980327 180.666666667)
	(20.0308770738 0.874566980327 180.666666667)
	(0 0 181.333333333)
	(21.6066421505 -0.943366369379 181.333333333)
	(21.6066421505 0.943366369379 181.333333333)
	(0 0 182.0)
	(23.040331836 -1.00596261289 182.0)
	(23.040331836 1.00596261289 182.0)
	(0 0 182.666666667)
	(24.2687048355 -1.05959453628 182.666666667)
	(24.2687048355 1.05959453628 182.666666667)
	(0 0 183.333333333)
	(25.2374931783 -1.10189274881 183.333333333)
	(25.2374931783 1.10189274881 183.333333333)
	(0 0 184.0)
	(25.9037739892 -1.13098319726 184.0)
	(25.9037739892 1.13098319726 184.0)
	(0 0 184.666666667)
	(26.2378454236 -1.14556907108 184.666666667)
	(26.2378454236 1.14556907108 184.666666667)
	(0 0 185.333333333)
	(26.2245247806 -1.14498747925 185.333333333)
	(26.2245247806 1.14498747925 185.333333333)
	(0 0 186.0)
	(25.8638120603 -1.12923842176 186.0)
	(25.8638120603 1.12923842176 186.0)
	(0 0 186.666666667)
	(25.1708899635 -1.09898478965 186.666666667)
	(25.1708899635 1.09898478965 186.666666667)
	(0 0 187.333333333)
	(24.1754603348 -1.05552339346 187.333333333)
	(24.1754603348 1.05552339346 187.333333333)