/*--------------------------------*- C++ -*----------------------------------*\
  =========                 |
  \\      /  F ield         | OpenFOAM: The Open Source CFD Toolbox
   \\    /   O peration     | Website:  https://openfoam.org
    \\  /    A nd           | Version:  8
     \\/     M anipulation  |
\*---------------------------------------------------------------------------*/
FoamFile
{
    version     2.0;
    format      ascii;
    class       dictionary;
    object      blockMeshDict;
}
// * * * * * * * * * * * * * * * * * * * * * * * * * * * * * * * * * * * * * //

convertToMeters 1e-3;

vertices
(
	(0 0 0.0)
	(21.9790608748 -0.959626522037 0.0)
	(21.9790608748 0.959626522037 0.0)
	(0 0 0.666666666667)
	(23.6540919574 -1.03275995851 0.666666666667)
	(23.6540919574 1.03275995851 0.666666666667)
	(0 0 1.33333333333)
	(25.25649832 -1.10272253122 1.33333333333)
	(25.25649832 1.10272253122 1.33333333333)
	(0 0 2.0)
	(26.7168292915 -1.16648195839 2.0)
	(26.7168292915 1.16648195839 2.0)
	(0 0 2.66666666667)
	(27.9718435768 -1.22127706545 2.66666666667)
	(27.9718435768 1.22127706545 2.66666666667)
	(0 0 3.33333333333)
	(28.9672732055 -1.26473846164 3.33333333333)
	(28.9672732055 1.26473846164 3.33333333333)
	(0 0 4.0)
	(29.6601953024 -1.29499209375 4.0)
	(29.6601953024 1.29499209375 4.0)
	(0 0 4.66666666667)
	(30.0209080226 -1.31074115124 4.66666666667)
	(30.0209080226 1.31074115124 4.66666666667)
	(0 0 5.33333333333)
	(30.0342286656 -1.31132274307 5.33333333333)
	(30.0342286656 1.31132274307 5.33333333333)
	(0 0 6.0)
	(29.7001572312 -1.29673686925 6.0)
	(29.7001572312 1.29673686925 6.0)
	(0 0 6.66666666667)
	(29.0338764203 -1.2676464208 6.66666666667)
	(29.0338764203 1.2676464208 6.66666666667)
	(0 0 7.33333333333)
	(28.0650880775 -1.22534820827 7.33333333333)
	(28.0650880775 1.22534820827 7.33333333333)
	(0 0 8.0)
	(26.8367150781 -1.17171628487 8.0)
	(26.8367150781 1.17171628487 8.0)
	(0 0 8.66666666667)
	(25.4030253925 -1.10912004137 8.66666666667)
	(25.4030253925 1.10912004137 8.66666666667)
	(0 0 9.33333333333)
	(23.8272603158 -1.04032065232 9.33333333333)
	(23.8272603158 1.04032065232 9.33333333333)
	(0 0 10.0)
	(22.1788705191 -0.96835039951 10.0)
	(22.1788705191 0.96835039951 10.0)
	(0 0 10.6666666667)
	(20.5304807224 -0.896380146706 10.6666666667)
	(20.5304807224 0.896380146706 10.6666666667)
	(0 0 11.3333333333)
	(18.9547156457 -0.827580757654 11.3333333333)
	(18.9547156457 0.827580757654 11.3333333333)
	(0 0 12.0)
	(17.5210259602 -0.764984514146 12.0)
	(17.5210259602 0.764984514146 12.0)
	(0 0 12.6666666667)
	(16.2926529608 -0.711352590748 12.6666666667)
	(16.2926529608 0.711352590748 12.6666666667)
	(0 0 13.3333333333)
	(15.3238646179 -0.669054378221 13.3333333333)
	(15.3238646179 0.669054378221 13.3333333333)
	(0 0 14.0)
	(14.657583807 -0.639963929775 14.0)
	(14.657583807 0.639963929775 14.0)
	(0 0 14.6666666667)
	(14.3235123727 -0.625378055952 14.6666666667)
	(14.3235123727 0.625378055952 14.6666666667)
	(0 0 15.3333333333)
	(14.3368330156 -0.625959647784 15.3333333333)
	(14.3368330156 0.625959647784 15.3333333333)
	(0 0 16.0)
	(14.6975457359 -0.641708705269 16.0)
	(14.6975457359 0.641708705269 16.0)
	(0 0 16.6666666667)
	(15.3904678327 -0.671962337379 16.6666666667)
	(15.3904678327 0.671962337379 16.6666666667)
	(0 0 17.3333333333)
	(16.3858974614 -0.715423733569 17.3333333333)
	(16.3858974614 0.715423733569 17.3333333333)
	(0 0 18.0)
	(17.6409117468 -0.77021884063 18.0)
	(17.6409117468 0.77021884063 18.0)
	(0 0 18.6666666667)
	(19.1012427182 -0.8339782678 18.6666666667)
	(19.1012427182 0.8339782678 18.6666666667)
	(0 0 19.3333333333)
	(20.7036490808 -0.903940840515 19.3333333333)
	(20.7036490808 0.903940840515 19.3333333333)
	(0 0 20.0)
	(22.3786801634 -0.977074276984 20.0)
	(22.3786801634 0.977074276984 20.0)
	(0 0 20.6666666667)
	(24.053711246 -1.05020771345 20.6666666667)
	(24.053711246 1.05020771345 20.6666666667)
	(0 0 21.3333333333)
	(25.6561176087 -1.12017028617 21.3333333333)
	(25.6561176087 1.12017028617 21.3333333333)
	(0 0 22.0)
	(27.1164485801 -1.18392971334 22.0)
	(27.1164485801 1.18392971334 22.0)
	(0 0 22.6666666667)
	(28.3714628654 -1.2387248204 22.6666666667)
	(28.3714628654 1.2387248204 22.6666666667)
	(0 0 23.3333333333)
	(29.3668924942 -1.28218621659 23.3333333333)
	(29.3668924942 1.28218621659 23.3333333333)
	(0 0 24.0)
	(30.059814591 -1.3124398487 24.0)
	(30.059814591 1.3124398487 24.0)
	(0 0 24.6666666667)
	(30.4205273112 -1.32818890618 24.6666666667)
	(30.4205273112 1.32818890618 24.6666666667)
	(0 0 25.3333333333)
	(30.4338479542 -1.32877049801 25.3333333333)
	(30.4338479542 1.32877049801 25.3333333333)
	(0 0 26.0)
	(30.0997765199 -1.31418462419 26.0)
	(30.0997765199 1.31418462419 26.0)
	(0 0 26.6666666667)
	(29.4334957089 -1.28509417575 26.6666666667)
	(29.4334957089 1.28509417575 26.6666666667)
	(0 0 27.3333333333)
	(28.4647073661 -1.24279596322 27.3333333333)
	(28.4647073661 1.24279596322 27.3333333333)
	(0 0 28.0)
	(27.2363343667 -1.18916403982 28.0)
	(27.2363343667 1.18916403982 28.0)
	(0 0 28.6666666667)
	(25.8026446812 -1.12656779631 28.6666666667)
	(25.8026446812 1.12656779631 28.6666666667)
	(0 0 29.3333333333)
	(24.2268796045 -1.05776840726 29.3333333333)
	(24.2268796045 1.05776840726 29.3333333333)
	(0 0 30.0)
	(22.5784898077 -0.985798154457 30.0)
	(22.5784898077 0.985798154457 30.0)
	(0 0 30.6666666667)
	(20.930100011 -0.913827901652 30.6666666667)
	(20.930100011 0.913827901652 30.6666666667)
	(0 0 31.3333333333)
	(19.3543349343 -0.8450285126 31.3333333333)
	(19.3543349343 0.8450285126 31.3333333333)
	(0 0 32.0)
	(17.9206452488 -0.782432269092 32.0)
	(17.9206452488 0.782432269092 32.0)
	(0 0 32.6666666667)
	(16.6922722494 -0.728800345694 32.6666666667)
	(16.6922722494 0.728800345694 32.6666666667)
	(0 0 33.3333333333)
	(15.7234839066 -0.686502133167 33.3333333333)
	(15.7234839066 0.686502133167 33.3333333333)
	(0 0 34.0)
	(15.0572030956 -0.657411684721 34.0)
	(15.0572030956 0.657411684721 34.0)
	(0 0 34.6666666667)
	(14.7231316613 -0.642825810898 34.6666666667)
	(14.7231316613 0.642825810898 34.6666666667)
	(0 0 35.3333333333)
	(14.7364523043 -0.64340740273 35.3333333333)
	(14.7364523043 0.64340740273 35.3333333333)
	(0 0 36.0)
	(15.0971650245 -0.659156460216 36.0)
	(15.0971650245 0.659156460216 36.0)
	(0 0 36.6666666667)
	(15.7900871213 -0.689410092325 36.6666666667)
	(15.7900871213 0.689410092325 36.6666666667)
	(0 0 37.3333333333)
	(16.7855167501 -0.732871488515 37.3333333333)
	(16.7855167501 0.732871488515 37.3333333333)
	(0 0 38.0)
	(18.0405310354 -0.787666595576 38.0)
	(18.0405310354 0.787666595576 38.0)
	(0 0 38.6666666667)
	(19.5008620068 -0.851426022747 38.6666666667)
	(19.5008620068 0.851426022747 38.6666666667)
	(0 0 39.3333333333)
	(21.1032683695 -0.921388595462 39.3333333333)
	(21.1032683695 0.921388595462 39.3333333333)
	(0 0 40.0)
	(22.7782994521 -0.99452203193 40.0)
	(22.7782994521 0.99452203193 40.0)
	(0 0 40.6666666667)
	(24.4533305347 -1.0676554684 40.6666666667)
	(24.4533305347 1.0676554684 40.6666666667)
	(0 0 41.3333333333)
	(26.0557368973 -1.13761804111 41.3333333333)
	(26.0557368973 1.13761804111 41.3333333333)
	(0 0 42.0)
	(27.5160678687 -1.20137746828 42.0)
	(27.5160678687 1.20137746828 42.0)
	(0 0 42.6666666667)
	(28.7710821541 -1.25617257534 42.6666666667)
	(28.7710821541 1.25617257534 42.6666666667)
	(0 0 43.3333333333)
	(29.7665117828 -1.29963397153 43.3333333333)
	(29.7665117828 1.29963397153 43.3333333333)
	(0 0 44.0)
	(30.4594338796 -1.32988760364 44.0)
	(30.4594338796 1.32988760364 44.0)
	(0 0 44.6666666667)
	(30.8201465999 -1.34563666113 44.6666666667)
	(30.8201465999 1.34563666113 44.6666666667)
	(0 0 45.3333333333)
	(30.8334672428 -1.34621825296 45.3333333333)
	(30.8334672428 1.34621825296 45.3333333333)
	(0 0 46.0)
	(30.4993958085 -1.33163237914 46.0)
	(30.4993958085 1.33163237914 46.0)
	(0 0 46.6666666667)
	(29.8331149976 -1.30254193069 46.6666666667)
	(29.8331149976 1.30254193069 46.6666666667)
	(0 0 47.3333333333)
	(28.8643266547 -1.26024371816 47.3333333333)
	(28.8643266547 1.26024371816 47.3333333333)
	(0 0 48.0)
	(27.6359536553 -1.20661179477 48.0)
	(27.6359536553 1.20661179477 48.0)
	(0 0 48.6666666667)
	(26.2022639698 -1.14401555126 48.6666666667)
	(26.2022639698 1.14401555126 48.6666666667)
	(0 0 49.3333333333)
	(24.6264988931 -1.07521616221 49.3333333333)
	(24.6264988931 1.07521616221 49.3333333333)
	(0 0 50.0)
	(22.9781090964 -1.0032459094 50.0)
	(22.9781090964 1.0032459094 50.0)
	(0 0 50.6666666667)
	(21.3297192997 -0.931275656598 50.6666666667)
	(21.3297192997 0.931275656598 50.6666666667)
	(0 0 51.3333333333)
	(19.753954223 -0.862476267546 51.3333333333)
	(19.753954223 0.862476267546 51.3333333333)
	(0 0 52.0)
	(18.3202645374 -0.799880024038 52.0)
	(18.3202645374 0.799880024038 52.0)
	(0 0 52.6666666667)
	(17.091891538 -0.746248100641 52.6666666667)
	(17.091891538 0.746248100641 52.6666666667)
	(0 0 53.3333333333)
	(16.1231031952 -0.703949888113 53.3333333333)
	(16.1231031952 0.703949888113 53.3333333333)
	(0 0 54.0)
	(15.4568223843 -0.674859439667 54.0)
	(15.4568223843 0.674859439667 54.0)
	(0 0 54.6666666667)
	(15.1227509499 -0.660273565844 54.6666666667)
	(15.1227509499 0.660273565844 54.6666666667)
	(0 0 55.3333333333)
	(15.1360715929 -0.660855157676 55.3333333333)
	(15.1360715929 0.660855157676 55.3333333333)
	(0 0 56.0)
	(15.4967843131 -0.676604215162 56.0)
	(15.4967843131 0.676604215162 56.0)
	(0 0 56.6666666667)
	(16.18970641 -0.706857847271 56.6666666667)
	(16.18970641 0.706857847271 56.6666666667)
	(0 0 57.3333333333)
	(17.1851360387 -0.750319243461 57.3333333333)
	(17.1851360387 0.750319243461 57.3333333333)
	(0 0 58.0)
	(18.440150324 -0.805114350522 58.0)
	(18.440150324 0.805114350522 58.0)
	(0 0 58.6666666667)
	(19.9004812955 -0.868873777693 58.6666666667)
	(19.9004812955 0.868873777693 58.6666666667)
	(0 0 59.3333333333)
	(21.5028876581 -0.938836350408 59.3333333333)
	(21.5028876581 0.938836350408 59.3333333333)
	(0 0 60.0)
	(23.1779187407 -1.01196978688 60.0)
	(23.1779187407 1.01196978688 60.0)
	(0 0 60.6666666667)
	(24.8529498233 -1.08510322334 60.6666666667)
	(24.8529498233 1.08510322334 60.6666666667)
	(0 0 61.3333333333)
	(26.4553561859 -1.15506579606 61.3333333333)
	(26.4553561859 1.15506579606 61.3333333333)
	(0 0 62.0)
	(27.9156871574 -1.21882522323 62.0)
	(27.9156871574 1.21882522323 62.0)
	(0 0 62.6666666667)
	(29.1707014427 -1.27362033029 62.6666666667)
	(29.1707014427 1.27362033029 62.6666666667)
	(0 0 63.3333333333)
	(30.1661310714 -1.31708172648 63.3333333333)
	(30.1661310714 1.31708172648 63.3333333333)
	(0 0 64.0)
	(30.8590531683 -1.34733535859 64.0)
	(30.8590531683 1.34733535859 64.0)
	(0 0 64.6666666667)
	(31.2197658885 -1.36308441608 64.6666666667)
	(31.2197658885 1.36308441608 64.6666666667)
	(0 0 65.3333333333)
	(31.2330865315 -1.36366600791 65.3333333333)
	(31.2330865315 1.36366600791 65.3333333333)
	(0 0 66.0)
	(30.8990150971 -1.34908013408 66.0)
	(30.8990150971 1.34908013408 66.0)
	(0 0 66.6666666667)
	(30.2327342862 -1.31998968564 66.6666666667)
	(30.2327342862 1.31998968564 66.6666666667)
	(0 0 67.3333333333)
	(29.2639459434 -1.27769147311 67.3333333333)
	(29.2639459434 1.27769147311 67.3333333333)
	(0 0 68.0)
	(28.035572944 -1.22405954971 68.0)
	(28.035572944 1.22405954971 68.0)
	(0 0 68.6666666667)
	(26.6018832584 -1.16146330621 68.6666666667)
	(26.6018832584 1.16146330621 68.6666666667)
	(0 0 69.3333333333)
	(25.0261181817 -1.09266391715 69.3333333333)
	(25.0261181817 1.09266391715 69.3333333333)
	(0 0 70.0)
	(23.377728385 -1.02069366435 70.0)
	(23.377728385 1.02069366435 70.0)
	(0 0 70.6666666667)
	(21.7293385883 -0.948723411544 70.6666666667)
	(21.7293385883 0.948723411544 70.6666666667)
	(0 0 71.3333333333)
	(20.1535735116 -0.879924022492 71.3333333333)
	(20.1535735116 0.879924022492 71.3333333333)
	(0 0 72.0)
	(18.7198838261 -0.817327778984 72.0)
	(18.7198838261 0.817327778984 72.0)
	(0 0 72.6666666667)
	(17.4915108267 -0.763695855587 72.6666666667)
	(17.4915108267 0.763695855587 72.6666666667)
	(0 0 73.3333333333)
	(16.5227224838 -0.721397643059 73.3333333333)
	(16.5227224838 0.721397643059 73.3333333333)
	(0 0 74.0)
	(15.8564416729 -0.692307194613 74.0)
	(15.8564416729 0.692307194613 74.0)
	(0 0 74.6666666667)
	(15.5223702386 -0.677721320791 74.6666666667)
	(15.5223702386 0.677721320791 74.6666666667)
	(0 0 75.3333333333)
	(15.5356908815 -0.678302912622 75.3333333333)
	(15.5356908815 0.678302912622 75.3333333333)
	(0 0 76.0)
	(15.8964036018 -0.694051970108 76.0)
	(15.8964036018 0.694051970108 76.0)
	(0 0 76.6666666667)
	(16.5893256986 -0.724305602217 76.6666666667)
	(16.5893256986 0.724305602217 76.6666666667)
	(0 0 77.3333333333)
	(17.5847553273 -0.767766998407 77.3333333333)
	(17.5847553273 0.767766998407 77.3333333333)
	(0 0 78.0)
	(18.8397696127 -0.822562105468 78.0)
	(18.8397696127 0.822562105468 78.0)
	(0 0 78.6666666667)
	(20.3001005841 -0.886321532639 78.6666666667)
	(20.3001005841 0.886321532639 78.6666666667)
	(0 0 79.3333333333)
	(21.9025069467 -0.956284105354 79.3333333333)
	(21.9025069467 0.956284105354 79.3333333333)
	(0 0 80.0)
	(23.5775380293 -1.02941754182 80.0)
	(23.5775380293 1.02941754182 80.0)
	(0 0 80.6666666667)
	(25.2525691119 -1.10255097829 80.6666666667)
	(25.2525691119 1.10255097829 80.6666666667)
	(0 0 81.3333333333)
	(26.8549754746 -1.17251355101 81.3333333333)
	(26.8549754746 1.17251355101 81.3333333333)
	(0 0 82.0)
	(28.315306446 -1.23627297818 82.0)
	(28.315306446 1.23627297818 82.0)
	(0 0 82.6666666667)
	(29.5703207313 -1.29106808524 82.6666666667)
	(29.5703207313 1.29106808524 82.6666666667)
	(0 0 83.3333333333)
	(30.5657503601 -1.33452948143 83.3333333333)
	(30.5657503601 1.33452948143 83.3333333333)
	(0 0 84.0)
	(31.2586724569 -1.36478311354 84.0)
	(31.2586724569 1.36478311354 84.0)
	(0 0 84.6666666667)
	(31.6193851771 -1.38053217102 84.6666666667)
	(31.6193851771 1.38053217102 84.6666666667)
	(0 0 85.3333333333)
	(31.6327058201 -1.38111376285 85.3333333333)
	(31.6327058201 1.38111376285 85.3333333333)
	(0 0 86.0)
	(31.2986343857 -1.36652788903 86.0)
	(31.2986343857 1.36652788903 86.0)
	(0 0 86.6666666667)
	(30.6323535748 -1.33743744058 86.6666666667)
	(30.6323535748 1.33743744058 86.6666666667)
	(0 0 87.3333333333)
	(29.663565232 -1.29513922806 87.3333333333)
	(29.663565232 1.29513922806 87.3333333333)
	(0 0 88.0)
	(28.4351922326 -1.24150730466 88.0)
	(28.4351922326 1.24150730466 88.0)
	(0 0 88.6666666667)
	(27.0015025471 -1.17891106115 88.6666666667)
	(27.0015025471 1.17891106115 88.6666666667)
	(0 0 89.3333333333)
	(25.4257374704 -1.1101116721 89.3333333333)
	(25.4257374704 1.1101116721 89.3333333333)
	(0 0 90.0)
	(23.7773476736 -1.03814141929 90.0)
	(23.7773476736 1.03814141929 90.0)
	(0 0 90.6666666667)
	(22.1289578769 -0.96617116649 90.6666666667)
	(22.1289578769 0.96617116649 90.6666666667)
	(0 0 91.3333333333)
	(20.5531928002 -0.897371777438 91.3333333333)
	(20.5531928002 0.897371777438 91.3333333333)
	(0 0 92.0)
	(19.1195031147 -0.834775533931 92.0)
	(19.1195031147 0.834775533931 92.0)
	(0 0 92.6666666667)
	(17.8911301153 -0.781143610533 92.6666666667)
	(17.8911301153 0.781143610533 92.6666666667)
	(0 0 93.3333333333)
	(16.9223417725 -0.738845398006 93.3333333333)
	(16.9223417725 0.738845398006 93.3333333333)
	(0 0 94.0)
	(16.2560609615 -0.709754949559 94.0)
	(16.2560609615 0.709754949559 94.0)
	(0 0 94.6666666667)
	(15.9219895272 -0.695169075737 94.6666666667)
	(15.9219895272 0.695169075737 94.6666666667)
	(0 0 95.3333333333)
	(15.9353101701 -0.695750667568 95.3333333333)
	(15.9353101701 0.695750667568 95.3333333333)
	(0 0 96.0)
	(16.2960228904 -0.711499725054 96.0)
	(16.2960228904 0.711499725054 96.0)
	(0 0 96.6666666667)
	(16.9889449872 -0.741753357163 96.6666666667)
	(16.9889449872 0.741753357163 96.6666666667)
	(0 0 97.3333333333)
	(17.984374616 -0.785214753354 97.3333333333)
	(17.984374616 0.785214753354 97.3333333333)
	(0 0 98.0)
	(19.2393889013 -0.840009860414 98.0)
	(19.2393889013 0.840009860414 98.0)
	(0 0 98.6666666667)
	(20.6997198727 -0.903769287585 98.6666666667)
	(20.6997198727 0.903769287585 98.6666666667)
	(0 0 99.3333333333)
	(22.3021262353 -0.9737318603 99.3333333333)
	(22.3021262353 0.9737318603 99.3333333333)
	(0 0 100.0)
	(23.977157318 -1.04686529677 100.0)
	(23.977157318 1.04686529677 100.0)
	(0 0 100.666666667)
	(25.6521884006 -1.11999873324 100.666666667)
	(25.6521884006 1.11999873324 100.666666667)
	(0 0 101.333333333)
	(27.2545947632 -1.18996130595 101.333333333)
	(27.2545947632 1.18996130595 101.333333333)
	(0 0 102.0)
	(28.7149257346 -1.25372073312 102.0)
	(28.7149257346 1.25372073312 102.0)
	(0 0 102.666666667)
	(29.9699400199 -1.30851584018 102.666666667)
	(29.9699400199 1.30851584018 102.666666667)
	(0 0 103.333333333)
	(30.9653696487 -1.35197723637 103.333333333)
	(30.9653696487 1.35197723637 103.333333333)
	(0 0 104.0)
	(31.6582917455 -1.38223086848 104.0)
	(31.6582917455 1.38223086848 104.0)
	(0 0 104.666666667)
	(32.0190044658 -1.39797992597 104.666666667)
	(32.0190044658 1.39797992597 104.666666667)
	(0 0 105.333333333)
	(32.0323251087 -1.3985615178 105.333333333)
	(32.0323251087 1.3985615178 105.333333333)
	(0 0 106.0)
	(31.6982536744 -1.38397564398 106.0)
	(31.6982536744 1.38397564398 106.0)
	(0 0 106.666666667)
	(31.0319728635 -1.35488519553 106.666666667)
	(31.0319728635 1.35488519553 106.666666667)
	(0 0 107.333333333)
	(30.0631845206 -1.312586983 107.333333333)
	(30.0631845206 1.312586983 107.333333333)
	(0 0 108.0)
	(28.8348115212 -1.25895505961 108.0)
	(28.8348115212 1.25895505961 108.0)
	(0 0 108.666666667)
	(27.4011218357 -1.1963588161 108.666666667)
	(27.4011218357 1.1963588161 108.666666667)
	(0 0 109.333333333)
	(25.825356759 -1.12755942705 109.333333333)
	(25.825356759 1.12755942705 109.333333333)
	(0 0 110.0)
	(24.1769669623 -1.05558917424 110.0)
	(24.1769669623 1.05558917424 110.0)
	(0 0 110.666666667)
	(22.5285771656 -0.983618921436 110.666666667)
	(22.5285771656 0.983618921436 110.666666667)
	(0 0 111.333333333)
	(20.9528120889 -0.914819532384 111.333333333)
	(20.9528120889 0.914819532384 111.333333333)
	(0 0 112.0)
	(19.5191224033 -0.852223288877 112.0)
	(19.5191224033 0.852223288877 112.0)
	(0 0 112.666666667)
	(18.2907494039 -0.798591365479 112.666666667)
	(18.2907494039 0.798591365479 112.666666667)
	(0 0 113.333333333)
	(17.3219610611 -0.756293152952 113.333333333)
	(17.3219610611 0.756293152952 113.333333333)
	(0 0 114.0)
	(16.6556802502 -0.727202704506 114.0)
	(16.6556802502 0.727202704506 114.0)
	(0 0 114.666666667)
	(16.3216088158 -0.712616830683 114.666666667)
	(16.3216088158 0.712616830683 114.666666667)
	(0 0 115.333333333)
	(16.3349294588 -0.713198422514 115.333333333)
	(16.3349294588 0.713198422514 115.333333333)
	(0 0 116.0)
	(16.695642179 -0.72894748 116.0)
	(16.695642179 0.72894748 116.0)
	(0 0 116.666666667)
	(17.3885642759 -0.759201112109 116.666666667)
	(17.3885642759 0.759201112109 116.666666667)
	(0 0 117.333333333)
	(18.3839939046 -0.8026625083 117.333333333)
	(18.3839939046 0.8026625083 117.333333333)
	(0 0 118.0)
	(19.6390081899 -0.857457615361 118.0)
	(19.6390081899 0.857457615361 118.0)
	(0 0 118.666666667)
	(21.0993391614 -0.921217042531 118.666666667)
	(21.0993391614 0.921217042531 118.666666667)
	(0 0 119.333333333)
	(22.701745524 -0.991179615246 119.333333333)
	(22.701745524 0.991179615246 119.333333333)
	(0 0 120.0)
	(24.3767766066 -1.06431305171 120.0)
	(24.3767766066 1.06431305171 120.0)
	(0 0 120.666666667)
	(26.0518076892 -1.13744648818 120.666666667)
	(26.0518076892 1.13744648818 120.666666667)
	(0 0 121.333333333)
	(27.6542140518 -1.2074090609 121.333333333)
	(27.6542140518 1.2074090609 121.333333333)
	(0 0 122.0)
	(29.1145450233 -1.27116848807 122.0)
	(29.1145450233 1.27116848807 122.0)
	(0 0 122.666666667)
	(30.3695593086 -1.32596359513 122.666666667)
	(30.3695593086 1.32596359513 122.666666667)
	(0 0 123.333333333)
	(31.3649889373 -1.36942499132 123.333333333)
	(31.3649889373 1.36942499132 123.333333333)
	(0 0 124.0)
	(32.0579110342 -1.39967862343 124.0)
	(32.0579110342 1.39967862343 124.0)
	(0 0 124.666666667)
	(32.4186237544 -1.41542768091 124.666666667)
	(32.4186237544 1.41542768091 124.666666667)
	(0 0 125.333333333)
	(32.4319443974 -1.41600927275 125.333333333)
	(32.4319443974 1.41600927275 125.333333333)
	(0 0 126.0)
	(32.097872963 -1.40142339892 126.0)
	(32.097872963 1.40142339892 126.0)
	(0 0 126.666666667)
	(31.4315921521 -1.37233295048 126.666666667)
	(31.4315921521 1.37233295048 126.666666667)
	(0 0 127.333333333)
	(30.4628038093 -1.33003473795 127.333333333)
	(30.4628038093 1.33003473795 127.333333333)
	(0 0 128.0)
	(29.2344308098 -1.27640281455 128.0)
	(29.2344308098 1.27640281455 128.0)
	(0 0 128.666666667)
	(27.8007411243 -1.21380657104 128.666666667)
	(27.8007411243 1.21380657104 128.666666667)
	(0 0 129.333333333)
	(26.2249760476 -1.14500718199 129.333333333)
	(26.2249760476 1.14500718199 129.333333333)
	(0 0 130.0)
	(24.5765862509 -1.07303692919 130.0)
	(24.5765862509 1.07303692919 130.0)
	(0 0 130.666666667)
	(22.9281964542 -1.00106667638 130.666666667)
	(22.9281964542 1.00106667638 130.666666667)
	(0 0 131.333333333)
	(21.3524313775 -0.93226728733 131.333333333)
	(21.3524313775 0.93226728733 131.333333333)
	(0 0 132.0)
	(19.918741692 -0.869671043823 132.0)
	(19.918741692 0.869671043823 132.0)
	(0 0 132.666666667)
	(18.6903686926 -0.816039120425 132.666666667)
	(18.6903686926 0.816039120425 132.666666667)
	(0 0 133.333333333)
	(17.7215803497 -0.773740907898 133.333333333)
	(17.7215803497 0.773740907898 133.333333333)
	(0 0 134.0)
	(17.0552995388 -0.744650459452 134.0)
	(17.0552995388 0.744650459452 134.0)
	(0 0 134.666666667)
	(16.7212281045 -0.730064585629 134.666666667)
	(16.7212281045 0.730064585629 134.666666667)
	(0 0 135.333333333)
	(16.7345487474 -0.730646177461 135.333333333)
	(16.7345487474 0.730646177461 135.333333333)
	(0 0 136.0)
	(17.0952614677 -0.746395234946 136.0)
	(17.0952614677 0.746395234946 136.0)
	(0 0 136.666666667)
	(17.7881835645 -0.776648867055 136.666666667)
	(17.7881835645 0.776648867055 136.666666667)
	(0 0 137.333333333)
	(18.7836131932 -0.820110263246 137.333333333)
	(18.7836131932 0.820110263246 137.333333333)
	(0 0 138.0)
	(20.0386274786 -0.874905370307 138.0)
	(20.0386274786 0.874905370307 138.0)
	(0 0 138.666666667)
	(21.49895845 -0.938664797477 138.666666667)
	(21.49895845 0.938664797477 138.666666667)
	(0 0 139.333333333)
	(23.1013648126 -1.00862737019 139.333333333)
	(23.1013648126 1.00862737019 139.333333333)
	(0 0 140.0)
	(24.7763958952 -1.08176080666 140.0)
	(24.7763958952 1.08176080666 140.0)
	(0 0 140.666666667)
	(26.4514269778 -1.15489424313 140.666666667)
	(26.4514269778 1.15489424313 140.666666667)
	(0 0 141.333333333)
	(28.0538333405 -1.22485681584 141.333333333)
	(28.0538333405 1.22485681584 141.333333333)
	(0 0 142.0)
	(29.5141643119 -1.28861624301 142.0)
	(29.5141643119 1.28861624301 142.0)
	(0 0 142.666666667)
	(30.7691785972 -1.34341135007 142.666666667)
	(30.7691785972 1.34341135007 142.666666667)
	(0 0 143.333333333)
	(31.764608226 -1.38687274627 143.333333333)
	(31.764608226 1.38687274627 143.333333333)
	(0 0 144.0)
	(32.4575303228 -1.41712637837 144.0)
	(32.4575303228 1.41712637837 144.0)
	(0 0 144.666666667)
	(32.818243043 -1.43287543586 144.666666667)
	(32.818243043 1.43287543586 144.666666667)
	(0 0 145.333333333)
	(32.831563686 -1.43345702769 145.333333333)
	(32.831563686 1.43345702769 145.333333333)
	(0 0 146.0)
	(32.4974922516 -1.41887115387 146.0)
	(32.4974922516 1.41887115387 146.0)
	(0 0 146.666666667)
	(31.8312114407 -1.38978070542 146.666666667)
	(31.8312114407 1.38978070542 146.666666667)
	(0 0 147.333333333)
	(30.8624230979 -1.3474824929 147.333333333)
	(30.8624230979 1.3474824929 147.333333333)
	(0 0 148.0)
	(29.6340500985 -1.2938505695 148.0)
	(29.6340500985 1.2938505695 148.0)
	(0 0 148.666666667)
	(28.200360413 -1.23125432599 148.666666667)
	(28.200360413 1.23125432599 148.666666667)
	(0 0 149.333333333)
	(26.6245953363 -1.16245493694 149.333333333)
	(26.6245953363 1.16245493694 149.333333333)
	(0 0 150.0)
	(24.9762055395 -1.09048468413 150.0)
	(24.9762055395 1.09048468413 150.0)
	(0 0 150.666666667)
	(23.3278157428 -1.01851443133 150.666666667)
	(23.3278157428 1.01851443133 150.666666667)
	(0 0 151.333333333)
	(21.7520506661 -0.949715042276 151.333333333)
	(21.7520506661 0.949715042276 151.333333333)
	(0 0 152.0)
	(20.3183609806 -0.887118798769 152.0)
	(20.3183609806 0.887118798769 152.0)
	(0 0 152.666666667)
	(19.0899879812 -0.833486875371 152.666666667)
	(19.0899879812 0.833486875371 152.666666667)
	(0 0 153.333333333)
	(18.1211996384 -0.791188662844 153.333333333)
	(18.1211996384 0.791188662844 153.333333333)
	(0 0 154.0)
	(17.4549188274 -0.762098214398 154.0)
	(17.4549188274 0.762098214398 154.0)
	(0 0 154.666666667)
	(17.1208473931 -0.747512340575 154.666666667)
	(17.1208473931 0.747512340575 154.666666667)
	(0 0 155.333333333)
	(17.134168036 -0.748093932407 155.333333333)
	(17.134168036 0.748093932407 155.333333333)
	(0 0 156.0)
	(17.4948807563 -0.763842989892 156.0)
	(17.4948807563 0.763842989892 156.0)
	(0 0 156.666666667)
	(18.1878028531 -0.794096622002 156.666666667)
	(18.1878028531 0.794096622002 156.666666667)
	(0 0 157.333333333)
	(19.1832324819 -0.837558018192 157.333333333)
	(19.1832324819 0.837558018192 157.333333333)
	(0 0 158.0)
	(20.4382467672 -0.892353125253 158.0)
	(20.4382467672 0.892353125253 158.0)
	(0 0 158.666666667)
	(21.8985777386 -0.956112552423 158.666666667)
	(21.8985777386 0.956112552423 158.666666667)
	(0 0 159.333333333)
	(23.5009841012 -1.02607512514 159.333333333)
	(23.5009841012 1.02607512514 159.333333333)
	(0 0 160.0)
	(25.1760151839 -1.09920856161 160.0)
	(25.1760151839 1.09920856161 160.0)
	(0 0 160.666666667)
	(26.8510462665 -1.17234199807 160.666666667)
	(26.8510462665 1.17234199807 160.666666667)
	(0 0 161.333333333)
	(28.4534526291 -1.24230457079 161.333333333)
	(28.4534526291 1.24230457079 161.333333333)
	(0 0 162.0)
	(29.9137836005 -1.30606399796 162.0)
	(29.9137836005 1.30606399796 162.0)
	(0 0 162.666666667)
	(31.1687978858 -1.36085910502 162.666666667)
	(31.1687978858 1.36085910502 162.666666667)
	(0 0 163.333333333)
	(32.1642275146 -1.40432050121 163.333333333)
	(32.1642275146 1.40432050121 163.333333333)
	(0 0 164.0)
	(32.8571496114 -1.43457413332 164.0)
	(32.8571496114 1.43457413332 164.0)
	(0 0 164.666666667)
	(33.2178623317 -1.45032319081 164.666666667)
	(33.2178623317 1.45032319081 164.666666667)
	(0 0 165.333333333)
	(33.2311829746 -1.45090478264 165.333333333)
	(33.2311829746 1.45090478264 165.333333333)
	(0 0 166.0)
	(32.8971115403 -1.43631890882 166.0)
	(32.8971115403 1.43631890882 166.0)
	(0 0 166.666666667)
	(32.2308307294 -1.40722846037 166.666666667)
	(32.2308307294 1.40722846037 166.666666667)
	(0 0 167.333333333)
	(31.2620423865 -1.36493024784 167.333333333)
	(31.2620423865 1.36493024784 167.333333333)
	(0 0 168.0)
	(30.0336693871 -1.31129832444 168.0)
	(30.0336693871 1.31129832444 168.0)
	(0 0 168.666666667)
	(28.5999797016 -1.24870208094 168.666666667)
	(28.5999797016 1.24870208094 168.666666667)
	(0 0 169.333333333)
	(27.0242146249 -1.17990269188 169.333333333)
	(27.0242146249 1.17990269188 169.333333333)
	(0 0 170.0)
	(25.3758248282 -1.10793243908 170.0)
	(25.3758248282 1.10793243908 170.0)
	(0 0 170.666666667)
	(23.7274350315 -1.03596218627 170.666666667)
	(23.7274350315 1.03596218627 170.666666667)
	(0 0 171.333333333)
	(22.1516699548 -0.967162797223 171.333333333)
	(22.1516699548 0.967162797223 171.333333333)
	(0 0 172.0)
	(20.7179802692 -0.904566553715 172.0)
	(20.7179802692 0.904566553715 172.0)
	(0 0 172.666666667)
	(19.4896072698 -0.850934630317 172.666666667)
	(19.4896072698 0.850934630317 172.666666667)
	(0 0 173.333333333)
	(18.520818927 -0.80863641779 173.333333333)
	(18.520818927 0.80863641779 173.333333333)
	(0 0 174.0)
	(17.8545381161 -0.779545969344 174.0)
	(17.8545381161 0.779545969344 174.0)
	(0 0 174.666666667)
	(17.5204666817 -0.764960095521 174.666666667)
	(17.5204666817 0.764960095521 174.666666667)
	(0 0 175.333333333)
	(17.5337873247 -0.765541687353 175.333333333)
	(17.5337873247 0.765541687353 175.333333333)
	(0 0 176.0)
	(17.8945000449 -0.781290744839 176.0)
	(17.8945000449 0.781290744839 176.0)
	(0 0 176.666666667)
	(18.5874221418 -0.811544376948 176.666666667)
	(18.5874221418 0.811544376948 176.666666667)
	(0 0 177.333333333)
	(19.5828517705 -0.855005773138 177.333333333)
	(19.5828517705 0.855005773138 177.333333333)
	(0 0 178.0)
	(20.8378660558 -0.909800880199 178.0)
	(20.8378660558 0.909800880199 178.0)
	(0 0 178.666666667)
	(22.2981970273 -0.97356030737 178.666666667)
	(22.2981970273 0.97356030737 178.666666667)
	(0 0 179.333333333)
	(23.9006033899 -1.04352288008 179.333333333)
	(23.9006033899 1.04352288008 179.333333333)
	(0 0 180.0)
	(25.5756344725 -1.11665631655 180.0)
	(25.5756344725 1.11665631655 180.0)
	(0 0 180.666666667)
	(27.2506655551 -1.18978975302 180.666666667)
	(27.2506655551 1.18978975302 180.666666667)
	(0 0 181.333333333)
	(28.8530719177 -1.25975232574 181.333333333)
	(28.8530719177 1.25975232574 181.333333333)
	(0 0 182.0)
	(30.3134028892 -1.32351175291 182.0)
	(30.3134028892 1.32351175291 182.0)
	(0 0 182.666666667)
	(31.5684171745 -1.37830685997 182.666666667)
	(31.5684171745 1.37830685997 182.666666667)
	(0 0 183.333333333)
	(32.5638468032 -1.42176825616 183.333333333)
	(32.5638468032 1.42176825616 183.333333333)
	(0 0 184.0)
	(33.2567689001 -1.45202188827 184.0)
	(33.2567689001 1.45202188827 184.0)
	(0 0 184.666666667)
	(33.6174816203 -1.46777094575 184.666666667)
	(33.6174816203 1.46777094575 184.666666667)
	(0 0 185.333333333)
	(33.6308022633 -1.46835253758 185.333333333)
	(33.6308022633 1.46835253758 185.333333333)
	(0 0 186.0)
	(33.2967308289 -1.45376666376 186.0)
	(33.2967308289 1.45376666376 186.0)
	(0 0 186.666666667)
	(32.630450018 -1.42467621532 186.666666667)
	(32.630450018 1.42467621532 186.666666667)
	(0 0 187.333333333)
	(31.6616616752 -1.38237800279 187.333333333)
	(31.6616616752 1.38237800279 187.333333333)
	(0 0 188.0)
	(30.4332886757 -1.32874607939 188.0)
	(30.4332886757 1.32874607939 188.0)